(PID.TID 0000.0001) 
(PID.TID 0000.0001) // ======================================================
(PID.TID 0000.0001) //                      MITgcm UV
(PID.TID 0000.0001) //                      =========
(PID.TID 0000.0001) // ======================================================
(PID.TID 0000.0001) // execution environment starting up...
(PID.TID 0000.0001) 
(PID.TID 0000.0001) // MITgcmUV version:  checkpoint65v
(PID.TID 0000.0001) // Build user:        gforget
(PID.TID 0000.0001) // Build host:        svante
(PID.TID 0000.0001) // Build date:        Mon May  9 13:46:09 EDT 2016
(PID.TID 0000.0001) 
(PID.TID 0000.0001) // =======================================================
(PID.TID 0000.0001) // Execution Environment parameter file "eedata"
(PID.TID 0000.0001) // =======================================================
(PID.TID 0000.0001) ># Example "eedata" file
(PID.TID 0000.0001) ># Lines beginning "#" are comments
(PID.TID 0000.0001) ># nTx - No. threads per process in X
(PID.TID 0000.0001) ># nTy - No. threads per process in Y
(PID.TID 0000.0001) > &EEPARMS
(PID.TID 0000.0001) > useCubedSphereExchange=.TRUE.,
(PID.TID 0000.0001) > nTx=1,
(PID.TID 0000.0001) > nTy=1,
(PID.TID 0000.0001) > /
(PID.TID 0000.0001) ># Note: Some systems use & as the
(PID.TID 0000.0001) ># namelist terminator. Other systems
(PID.TID 0000.0001) ># use a / character (as shown here).
(PID.TID 0000.0001) 
(PID.TID 0000.0001) // =======================================================
(PID.TID 0000.0001) // Computational Grid Specification ( see files "SIZE.h" )
(PID.TID 0000.0001) //                                  ( and "eedata"       )
(PID.TID 0000.0001) // =======================================================
(PID.TID 0000.0001)      nPx =   96 ; /* No. processes in X */
(PID.TID 0000.0001)      nPy =    1 ; /* No. processes in Y */
(PID.TID 0000.0001)      nSx =    1 ; /* No. tiles in X per process */
(PID.TID 0000.0001)      nSy =    1 ; /* No. tiles in Y per process */
(PID.TID 0000.0001)      sNx =   30 ; /* Tile size in X */
(PID.TID 0000.0001)      sNy =   30 ; /* Tile size in Y */
(PID.TID 0000.0001)      OLx =    4 ; /* Tile overlap distance in X */
(PID.TID 0000.0001)      OLy =    4 ; /* Tile overlap distance in Y */
(PID.TID 0000.0001)      nTx =    1 ; /* No. threads in X per process */
(PID.TID 0000.0001)      nTy =    1 ; /* No. threads in Y per process */
(PID.TID 0000.0001)       Nr =   50 ; /* No. levels in the vertical   */
(PID.TID 0000.0001)       Nx = 2880 ; /* Total domain size in X ( = nPx*nSx*sNx ) */
(PID.TID 0000.0001)       Ny =   30 ; /* Total domain size in Y ( = nPy*nSy*sNy ) */
(PID.TID 0000.0001)   nTiles =    1 ; /* Total no. tiles per process ( = nSx*nSy ) */
(PID.TID 0000.0001)   nProcs =   96 ; /* Total no. processes ( = nPx*nPy ) */
(PID.TID 0000.0001) nThreads =    1 ; /* Total no. threads per process ( = nTx*nTy ) */
(PID.TID 0000.0001) usingMPI =    T ; /* Flag used to control whether MPI is in use */
(PID.TID 0000.0001)                   /*  note: To execute a program with MPI calls */
(PID.TID 0000.0001)                   /*  it must be launched appropriately e.g     */
(PID.TID 0000.0001)                   /*  "mpirun -np 64 ......"                    */
(PID.TID 0000.0001) useCoupler=    F ;/* Flag used to control communications with   */
(PID.TID 0000.0001)                   /*  other model components, through a coupler */
(PID.TID 0000.0001) debugMode =    F ; /* print debug msg. (sequence of S/R calls)  */
(PID.TID 0000.0001) printMapIncludesZeros=    F ; /* print zeros in Std.Output maps */
(PID.TID 0000.0001) maxLengthPrt1D=   65 /* maxLength of 1D array printed to StdOut */
(PID.TID 0000.0001) 
(PID.TID 0000.0001) ======= Starting MPI parallel Run =========
(PID.TID 0000.0001)  My Processor Name (len: 19 ) = c053.svante.mit.edu
(PID.TID 0000.0001)  Located at (  0,  0) on processor grid (0: 95,0:  0)
(PID.TID 0000.0001)  Origin at  (     1,     1) on global grid (1:  2880,1:    30)
(PID.TID 0000.0001)  North neighbor = processor 0000
(PID.TID 0000.0001)  South neighbor = processor 0000
(PID.TID 0000.0001)   East neighbor = processor 0001
(PID.TID 0000.0001)   West neighbor = processor 0095
(PID.TID 0000.0001) // ======================================================
(PID.TID 0000.0001) // Mapping of tiles to threads
(PID.TID 0000.0001) // ======================================================
(PID.TID 0000.0001) // -o- Thread   1, tiles (   1:   1,   1:   1)
(PID.TID 0000.0001) 
(PID.TID 0000.0001) W2_READPARMS: opening data.exch2
(PID.TID 0000.0001)  OPEN_COPY_DATA_FILE: opening file data.exch2
(PID.TID 0000.0001) // =======================================================
(PID.TID 0000.0001) // Parameter file "data.exch2"
(PID.TID 0000.0001) // =======================================================
(PID.TID 0000.0001) ># EXCH2 Package: Wrapper-2 User Choice
(PID.TID 0000.0001) >#--------------------
(PID.TID 0000.0001) >#  preDefTopol   :: pre-defined Topology selector:
(PID.TID 0000.0001) >#                :: = 0 : topology defined from processing "data.exch2";
(PID.TID 0000.0001) >#                :: = 1 : simple, single facet topology;
(PID.TID 0000.0001) >#                :: = 2 : customized topology (w2_set_myown_facets)
(PID.TID 0000.0001) >#                :: = 3 : 6-facet Cube (3 face-dims: nRed, nGreen, nBlue).
(PID.TID 0000.0001) >#  dimsFacets    :: facet pair of dimensions (n1x,n1y, n2x,n2y ...)
(PID.TID 0000.0001) >#  facetEdgeLink :: Face-Edge connectivity map:
(PID.TID 0000.0001) >#    facetEdgeLink(i,j)=XX.1 : face(j)-edge(i) (i=1,2,3,4 <==> N,S,E,W)
(PID.TID 0000.0001) >#    is connected to Northern edge of face "XX" ; similarly,
(PID.TID 0000.0001) >#    = XX.2 : to Southern.E, XX.3 = Eastern.E, XX.4 = Western.E of face "XX"
(PID.TID 0000.0001) >#  blankList     :: List of "blank" tiles
(PID.TID 0000.0001) >#  W2_mapIO      :: global map IO selector (-1 = old type ; 0 = 1 long line in X
(PID.TID 0000.0001) >#                :: 1 = compact, mostly in Y dir)
(PID.TID 0000.0001) >#  W2_printMsg   :: option for information messages printing
(PID.TID 0000.0001) >#                :: <0 : write to log file ; =0 : minimum print ;
(PID.TID 0000.0001) >#                :: =1 : no duplicated print ; =2 : all processes do print
(PID.TID 0000.0001) >#--------------------
(PID.TID 0000.0001) > &W2_EXCH2_PARM01
(PID.TID 0000.0001) ># W2_printMsg= 0,
(PID.TID 0000.0001) >  W2_mapIO   = 1,
(PID.TID 0000.0001) >#
(PID.TID 0000.0001) >  preDefTopol=0,
(PID.TID 0000.0001) >#-- 5 facets llc_120 topology (drop facet 6 and its connection):
(PID.TID 0000.0001) >  dimsFacets(1:10) = 90, 270, 90, 270, 90, 90, 270, 90, 270, 90,
(PID.TID 0000.0001) >  facetEdgeLink(1:4,1)= 3.4, 0. , 2.4, 5.1,
(PID.TID 0000.0001) >  facetEdgeLink(1:4,2)= 3.2, 0. , 4.2, 1.3,
(PID.TID 0000.0001) >  facetEdgeLink(1:4,3)= 5.4, 2.1, 4.4, 1.1,
(PID.TID 0000.0001) >  facetEdgeLink(1:4,4)= 5.2, 2.3, 0. , 3.3,
(PID.TID 0000.0001) >  facetEdgeLink(1:4,5)= 1.4, 4.1, 0. , 3.1,
(PID.TID 0000.0001) >#-- full 6 facets llc_120 topology (equivalent to default preDefTopol=3):
(PID.TID 0000.0001) ># dimsFacets(1:12) = 120, 360, 120, 360, 120, 120, 360, 120, 360, 120, 120, 120,
(PID.TID 0000.0001) ># facetEdgeLink(1:4,1)= 3.4, 6.1, 2.4, 5.1,
(PID.TID 0000.0001) ># facetEdgeLink(1:4,2)= 3.2, 6.3, 4.2, 1.3,
(PID.TID 0000.0001) ># facetEdgeLink(1:4,3)= 5.4, 2.1, 4.4, 1.1,
(PID.TID 0000.0001) ># facetEdgeLink(1:4,4)= 5.2, 2.3, 6.2, 3.3,
(PID.TID 0000.0001) ># facetEdgeLink(1:4,5)= 1.4, 4.1, 6.4, 3.1,
(PID.TID 0000.0001) ># facetEdgeLink(1:4,6)= 1.2, 4.3, 2.2, 5.3,
(PID.TID 0000.0001) >#
(PID.TID 0000.0001) >#90x30   nprocs = 36
(PID.TID 0000.0001) >#  blankList(1:3)=1,10,11,
(PID.TID 0000.0001) >#30x90
(PID.TID 0000.0001) >#
(PID.TID 0000.0001) >#45x30   nprocs = 72
(PID.TID 0000.0001) >#  blankList(1:6)=1,2,19,20,21,22
(PID.TID 0000.0001) >#old:  blankList(1:8)=1,2,19,20,21,22,33,72
(PID.TID 0000.0001) >#30x45   nprocs = 68
(PID.TID 0000.0001) >#  blankList(1:10)=2,3,19,20,21,35,51,60,69,78
(PID.TID 0000.0001) >#45x45   nprocs = 48
(PID.TID 0000.0001) >#  blankList(1:4)=2,13,14,23
(PID.TID 0000.0001) >#old:  blankList(1:3)=2,13,14
(PID.TID 0000.0001) >#30x30   nprocs = 96
(PID.TID 0000.0001) >  blankList(1:21)=1,2,3,5,6,28,29,30,31,32,33,49,50,52,53,72,81,90,99,108,117
(PID.TID 0000.0001) >#old:   blankList(1:18)=1,2,3,28,29,30,31,32,33,49,50,53,72,81,90,99,108,117
(PID.TID 0000.0001) >#15x30   nprocs = 192
(PID.TID 0000.0001) >#  blankList(1:42)=1,2,3,4,5,6,9,10,11,12,55,56,57,58,59,60,61,62,63,64,65,66,
(PID.TID 0000.0001) >#            97,98,99,100,103,104,105,106,143,144,
(PID.TID 0000.0001) >#            161,162,179,180,197,198,215,216,233,234
(PID.TID 0000.0001) >#15x15   nprocs = 360
(PID.TID 0000.0001) >#  blankList(1:108)=1,2,3,4,5,6,7,8,9,10,11,12,14,15,16,17,18,21,22,23,24,
(PID.TID 0000.0001) >#  65,71,75,76,90,95,96,101,102,109,110,111,112,113,114,115,116,117,118,119,
(PID.TID 0000.0001) >#  120,121,122,123,124,125,126,127,128,129,130,131,132,
(PID.TID 0000.0001) >#  188,189,190,193,194,195,196,199,
(PID.TID 0000.0001) >#  200,201,202,203,205,206,207,208,209,211,212,213,214,215,216,242,247,253,
(PID.TID 0000.0001) >#  267,268,269,270,287,288,305,306,323,324,341,342,359,360,362,376,377,378,
(PID.TID 0000.0001) >#  380,381,382,395,396,400,412,413,414,430,
(PID.TID 0000.0001) >#
(PID.TID 0000.0001) > &
(PID.TID 0000.0001) 
(PID.TID 0000.0001) W2_READPARMS: finished reading data.exch2
(PID.TID 0000.0001) W2_useE2ioLayOut=    T ;/* T: use Exch2 glob IO map; F: use model default */
(PID.TID 0000.0001) W2_mapIO        =   1 ; /* select option for Exch2 global-IO map */
(PID.TID 0000.0001) W2_printMsg     =  -1 ; /* select option for printing information */
(PID.TID 0000.0001) ===== Start setting W2 TOPOLOGY:
(PID.TID 0000.0001)  write to log-file: w2_tile_topology.0000.log
(PID.TID 0000.0001) =====       setting W2 TOPOLOGY: Done
(PID.TID 0000.0001) 
(PID.TID 0000.0001)  INI_PARMS: opening model parameter file "data"
(PID.TID 0000.0001)  OPEN_COPY_DATA_FILE: opening file data
(PID.TID 0000.0001) // =======================================================
(PID.TID 0000.0001) // Parameter file "data"
(PID.TID 0000.0001) // =======================================================
(PID.TID 0000.0001) ># ====================
(PID.TID 0000.0001) ># | Model parameters |
(PID.TID 0000.0001) ># ====================
(PID.TID 0000.0001) >#
(PID.TID 0000.0001) ># Continuous equation parameters
(PID.TID 0000.0001) > &PARM01
(PID.TID 0000.0001) > tRef               = 3*23.,3*22.,21.,2*20.,19.,2*18.,17.,2*16.,15.,14.,13.,
(PID.TID 0000.0001) >                      12.,11.,2*9.,8.,7.,2*6.,2*5.,3*4.,3*3.,4*2.,12*1.,
(PID.TID 0000.0001) > sRef               = 50*34.5,
(PID.TID 0000.0001) > no_slip_sides  = .TRUE.,
(PID.TID 0000.0001) > no_slip_bottom = .TRUE.,
(PID.TID 0000.0001) >#
(PID.TID 0000.0001) > viscAr=0.5E-4,
(PID.TID 0000.0001) >#
(PID.TID 0000.0001) > viscAh=1.E0,
(PID.TID 0000.0001) > viscAhGrid=2.E-2,
(PID.TID 0000.0001) ># viscAh=2.0e4,
(PID.TID 0000.0001) >#
(PID.TID 0000.0001) > diffKhT=1.E1,
(PID.TID 0000.0001) > diffKrT=1.E-5,
(PID.TID 0000.0001) > diffKhS=1.E1,
(PID.TID 0000.0001) > diffKrS=1.E-5,
(PID.TID 0000.0001) >#
(PID.TID 0000.0001) >### diffKrBL79surf=0.1E-4,
(PID.TID 0000.0001) >### diffKrBL79deep=1.0E-4,
(PID.TID 0000.0001) > bottomDragQuadratic = 0.001,
(PID.TID 0000.0001) >#when using ggl90
(PID.TID 0000.0001) > ivdc_kappa=10.,
(PID.TID 0000.0001) > implicitDiffusion=.TRUE.,
(PID.TID 0000.0001) > implicitViscosity=.TRUE.,
(PID.TID 0000.0001) > useRealFreshWaterFlux=.TRUE.,
(PID.TID 0000.0001) ># balanceThetaClimRelax=.TRUE.,
(PID.TID 0000.0001) > balanceSaltClimRelax=.TRUE.,
(PID.TID 0000.0001) ># balanceEmPmR=.TRUE.,
(PID.TID 0000.0001) ># balanceQnet=.TRUE.,
(PID.TID 0000.0001) > allowFreezing=.FALSE.,
(PID.TID 0000.0001) >### hFacInf=0.2,
(PID.TID 0000.0001) >### hFacSup=2.0,
(PID.TID 0000.0001) > hFacMin=.2,
(PID.TID 0000.0001) > hFacMinDr=5.,
(PID.TID 0000.0001) > select_rStar=2,
(PID.TID 0000.0001) > nonlinFreeSurf=4,
(PID.TID 0000.0001) > gravity=9.81,
(PID.TID 0000.0001) > rhonil=1029.,
(PID.TID 0000.0001) > rhoConst=1029.,
(PID.TID 0000.0001) > rhoConstFresh=1000.,
(PID.TID 0000.0001) > convertFW2Salt=-1.,
(PID.TID 0000.0001) > eosType='JMD95Z',
(PID.TID 0000.0001) > implicitFreeSurface=.TRUE.,
(PID.TID 0000.0001) > exactConserv=.TRUE.,
(PID.TID 0000.0001) > useSingleCpuIO=.TRUE.,
(PID.TID 0000.0001) > tempAdvScheme=30,
(PID.TID 0000.0001) > saltAdvScheme=30,
(PID.TID 0000.0001) > tempVertAdvScheme=3,
(PID.TID 0000.0001) > saltVertAdvScheme=3,
(PID.TID 0000.0001) > tempImplVertAdv=.TRUE.,
(PID.TID 0000.0001) > saltImplVertAdv=.TRUE.,
(PID.TID 0000.0001) > staggerTimeStep=.TRUE.,
(PID.TID 0000.0001) > vectorInvariantMomentum=.TRUE.,
(PID.TID 0000.0001) >#when using the cd scheme:
(PID.TID 0000.0001) ># useCDscheme=.TRUE.,
(PID.TID 0000.0001) > useJamartWetPoints=.TRUE.,
(PID.TID 0000.0001) > readBinaryPrec=32,
(PID.TID 0000.0001) > writeBinaryPrec=32,
(PID.TID 0000.0001) > debugLevel=1,
(PID.TID 0000.0001) > &
(PID.TID 0000.0001) >
(PID.TID 0000.0001) ># Elliptic solver parameters
(PID.TID 0000.0001) > &PARM02
(PID.TID 0000.0001) > cg2dMaxIters=300,
(PID.TID 0000.0001) > cg2dTargetResWunit=1.E-12,
(PID.TID 0000.0001) > &
(PID.TID 0000.0001) >
(PID.TID 0000.0001) ># Time stepping parameters
(PID.TID 0000.0001) > &PARM03
(PID.TID 0000.0001) > nIter0=1,
(PID.TID 0000.0001) >#2 lev2 for testing:
(PID.TID 0000.0001) >#nTimeSteps=8,
(PID.TID 0000.0001) >#20y:
(PID.TID 0000.0001) > nTimeSteps=175295,
(PID.TID 0000.0001) >#60 years
(PID.TID 0000.0001) >#nTimeSteps=525985,
(PID.TID 0000.0001) >#
(PID.TID 0000.0001) > forcing_In_AB=.FALSE.,
(PID.TID 0000.0001) > momDissip_In_AB=.FALSE.,
(PID.TID 0000.0001) >#when using the cd scheme:
(PID.TID 0000.0001) ># epsAB_CD = 0.25,
(PID.TID 0000.0001) ># tauCD=172800.0,
(PID.TID 0000.0001) > deltaTmom   =3600.,
(PID.TID 0000.0001) > deltaTtracer=3600.,
(PID.TID 0000.0001) > deltaTfreesurf=3600.,
(PID.TID 0000.0001) > deltaTClock =3600.,
(PID.TID 0000.0001) >#when using ab2:
(PID.TID 0000.0001) >#abEps = 0.1,
(PID.TID 0000.0001) >#when using ab3:
(PID.TID 0000.0001) > doAB_onGtGs=.FALSE.,
(PID.TID 0000.0001) > alph_AB=0.5,
(PID.TID 0000.0001) > beta_AB=0.281105,
(PID.TID 0000.0001) >#
(PID.TID 0000.0001) > pChkptFreq  =31536000.0,
(PID.TID 0000.0001) > chkptFreq   =31536000.0,
(PID.TID 0000.0001) ># taveFreq    =31536000.0,
(PID.TID 0000.0001) ># dumpFreq    =31536000.0,
(PID.TID 0000.0001) ># monitorFreq = 7200.0,
(PID.TID 0000.0001) > monitorFreq = 6307200.0,
(PID.TID 0000.0001) > dumpInitAndLast = .TRUE.,
(PID.TID 0000.0001) > adjMonitorFreq = 864000.0,
(PID.TID 0000.0001) > pickupStrictlyMatch=.FALSE.,
(PID.TID 0000.0001) > &
(PID.TID 0000.0001) >
(PID.TID 0000.0001) ># Gridding parameters
(PID.TID 0000.0001) > &PARM04
(PID.TID 0000.0001) > usingCurvilinearGrid=.TRUE.,
(PID.TID 0000.0001) > delR =
(PID.TID 0000.0001) >     10.00, 10.00, 10.00, 10.00, 10.00, 10.00, 10.00, 10.01,
(PID.TID 0000.0001) >     10.03, 10.11, 10.32, 10.80, 11.76, 13.42, 16.04, 19.82, 24.85,
(PID.TID 0000.0001) >     31.10, 38.42, 46.50, 55.00, 63.50, 71.58, 78.90, 85.15, 90.18,
(PID.TID 0000.0001) >     93.96, 96.58, 98.25, 99.25,100.01,101.33,104.56,111.33,122.83,
(PID.TID 0000.0001) >     139.09,158.94,180.83,203.55,226.50,249.50,272.50,295.50,318.50,
(PID.TID 0000.0001) >     341.50,364.50,387.50,410.50,433.50,456.50,
(PID.TID 0000.0001) > &
(PID.TID 0000.0001) >
(PID.TID 0000.0001) ># Input datasets
(PID.TID 0000.0001) > &PARM05
(PID.TID 0000.0001) >#adTapeDir='tapes',
(PID.TID 0000.0001) > bathyFile      ='bathy.bin',
(PID.TID 0000.0001) > hydrogThetaFile='T_OWPv1_M_eccollc_90x50.bin',
(PID.TID 0000.0001) > hydrogSaltFile ='S_OWPv1_M_eccollc_90x50.bin',
(PID.TID 0000.0001) > viscA4Dfile    ='viscA4Dfld.bin',
(PID.TID 0000.0001) > viscA4Zfile    ='viscA4Zfld.bin',
(PID.TID 0000.0001) > geothermalFile='geothermalFlux.bin',
(PID.TID 0000.0001) >#
(PID.TID 0000.0001) > &
(PID.TID 0000.0001) 
(PID.TID 0000.0001)  INI_PARMS ; starts to read PARM01
(PID.TID 0000.0001)  INI_PARMS ; read PARM01 : OK
(PID.TID 0000.0001)  INI_PARMS ; starts to read PARM02
(PID.TID 0000.0001)  INI_PARMS ; read PARM02 : OK
(PID.TID 0000.0001)  INI_PARMS ; starts to read PARM03
(PID.TID 0000.0001)  INI_PARMS ; read PARM03 : OK
(PID.TID 0000.0001)  INI_PARMS ; starts to read PARM04
(PID.TID 0000.0001)  INI_PARMS ; read PARM04 : OK
(PID.TID 0000.0001)  INI_PARMS ; starts to read PARM05
(PID.TID 0000.0001)  INI_PARMS ; read PARM05 : OK
(PID.TID 0000.0001)  INI_PARMS: finished reading file "data"
(PID.TID 0000.0001)  PACKAGES_BOOT: opening data.pkg
(PID.TID 0000.0001)  OPEN_COPY_DATA_FILE: opening file data.pkg
(PID.TID 0000.0001) // =======================================================
(PID.TID 0000.0001) // Parameter file "data.pkg"
(PID.TID 0000.0001) // =======================================================
(PID.TID 0000.0001) ># Packages
(PID.TID 0000.0001) > &PACKAGES
(PID.TID 0000.0001) > useEXF             = .TRUE.,
(PID.TID 0000.0001) > useGMRedi          = .TRUE.,
(PID.TID 0000.0001) > useSeaice          = .TRUE.,
(PID.TID 0000.0001) > useGGL90           = .TRUE.,
(PID.TID 0000.0001) > useSALT_PlUME      = .TRUE.,
(PID.TID 0000.0001) > useDiagnostics     = .TRUE.,
(PID.TID 0000.0001) > useAUTODIFF        = .FALSE.,
(PID.TID 0000.0001) > useECCO            = .TRUE.,
(PID.TID 0000.0001) > useCTRL            = .TRUE.,
(PID.TID 0000.0001) > useProfiles        = .TRUE.,
(PID.TID 0000.0001) > useSMOOTH          = .TRUE.,
(PID.TID 0000.0001) > &
(PID.TID 0000.0001) 
(PID.TID 0000.0001)  PACKAGES_BOOT: finished reading data.pkg
(PID.TID 0000.0001)  PACKAGES_BOOT: On/Off package Summary
 --------  pkgs with a standard "usePKG" On/Off switch in "data.pkg":  --------
 pkg/ggl90                compiled   and   used ( useGGL90                 = T )
 pkg/gmredi               compiled   and   used ( useGMRedi                = T )
 pkg/cal                  compiled   and   used ( useCAL                   = T )
 pkg/exf                  compiled   and   used ( useEXF                   = T )
 pkg/autodiff             compiled but not used ( useAUTODIFF              = F )
 pkg/grdchk               compiled but not used ( useGrdchk                = F )
 pkg/smooth               compiled   and   used ( useSMOOTH                = T )
 pkg/profiles             compiled   and   used ( usePROFILES              = T )
 pkg/ecco                 compiled   and   used ( useECCO                  = T )
 pkg/ctrl                 compiled   and   used ( useCTRL                  = T )
 pkg/sbo                  compiled but not used ( useSBO                   = F )
 pkg/seaice               compiled   and   used ( useSEAICE                = T )
 pkg/salt_plume           compiled   and   used ( useSALT_PLUME            = T )
 pkg/diagnostics          compiled   and   used ( useDiagnostics           = T )
 -------- pkgs without standard "usePKG" On/Off switch in "data.pkg":  --------
 pkg/generic_advdiff      compiled   and   used ( useGAD                   = T )
 pkg/mom_common           compiled   and   used ( momStepping              = T )
 pkg/mom_vecinv           compiled   and   used ( +vectorInvariantMomentum = T )
 pkg/monitor              compiled   and   used ( monitorFreq > 0.         = T )
 pkg/timeave              compiled but not used ( taveFreq > 0.            = F )
 pkg/debug                compiled but not used ( debugMode                = F )
 pkg/exch2                compiled   and   used
 pkg/rw                   compiled   and   used
 pkg/mdsio                compiled   and   used
 pkg/autodiff             compiled   and   used
 pkg/cost                 compiled   and   used
(PID.TID 0000.0001)  PACKAGES_BOOT: End of package Summary
(PID.TID 0000.0001) 
(PID.TID 0000.0001) CAL_READPARMS: opening data.cal
(PID.TID 0000.0001)  OPEN_COPY_DATA_FILE: opening file data.cal
(PID.TID 0000.0001) // =======================================================
(PID.TID 0000.0001) // Parameter file "data.cal"
(PID.TID 0000.0001) // =======================================================
(PID.TID 0000.0001) >#
(PID.TID 0000.0001) ># *******************
(PID.TID 0000.0001) ># Calendar Parameters
(PID.TID 0000.0001) ># *******************
(PID.TID 0000.0001) > &CAL_NML
(PID.TID 0000.0001) > TheCalendar='gregorian',
(PID.TID 0000.0001) > calendarDumps=.TRUE.,
(PID.TID 0000.0001) ># TheCalendar='model',
(PID.TID 0000.0001) > startDate_1=19920101,
(PID.TID 0000.0001) > startDate_2=120000,
(PID.TID 0000.0001) > &
(PID.TID 0000.0001) 
(PID.TID 0000.0001) CAL_READPARMS: finished reading data.cal
(PID.TID 0000.0001) EXF_READPARMS: opening data.exf
(PID.TID 0000.0001)  OPEN_COPY_DATA_FILE: opening file data.exf
(PID.TID 0000.0001) // =======================================================
(PID.TID 0000.0001) // Parameter file "data.exf"
(PID.TID 0000.0001) // =======================================================
(PID.TID 0000.0001) ># *********************
(PID.TID 0000.0001) ># External Forcing Data
(PID.TID 0000.0001) ># *********************
(PID.TID 0000.0001) >#
(PID.TID 0000.0001) > &EXF_NML_01
(PID.TID 0000.0001) >#
(PID.TID 0000.0001) > useAtmWind        = .FALSE.,
(PID.TID 0000.0001) > readStressOnAgrid = .TRUE.,
(PID.TID 0000.0001) > rotateStressOnAgrid = .TRUE.,
(PID.TID 0000.0001) >#NCEP VALUES:
(PID.TID 0000.0001) ># exf_albedo        = 0.15,
(PID.TID 0000.0001) ># exf_scal_BulkCdn  = 1.015,
(PID.TID 0000.0001) >#
(PID.TID 0000.0001) >#TO COMBINE WITH ALLOW_ZENITH_ANGLE:
(PID.TID 0000.0001) > exf_albedo        = 0.1,
(PID.TID 0000.0001) > useExfZenIncoming = .TRUE.,
(PID.TID 0000.0001) > select_ZenAlbedo  = 1,
(PID.TID 0000.0001) >#
(PID.TID 0000.0001) > ocean_emissivity = 0.97,
(PID.TID 0000.0001) > ice_emissivity = 0.95,
(PID.TID 0000.0001) > snow_emissivity = 0.95,
(PID.TID 0000.0001) >#
(PID.TID 0000.0001) > exf_iprec         = 32,
(PID.TID 0000.0001) > exf_yftype        = 'RL',
(PID.TID 0000.0001) > useExfYearlyFields= .TRUE.,
(PID.TID 0000.0001) > useExfCheckRange  = .FALSE.,
(PID.TID 0000.0001) > &
(PID.TID 0000.0001) >#
(PID.TID 0000.0001) > &EXF_NML_02
(PID.TID 0000.0001) > ustressfile       = 'forcing_baseline2/eccov4r2_ustr',
(PID.TID 0000.0001) > vstressfile       = 'forcing_baseline2/eccov4r2_vstr',
(PID.TID 0000.0001) > atempfile         = 'forcing_baseline2/eccov4r2_tmp2m_degC',
(PID.TID 0000.0001) > aqhfile           = 'forcing_baseline2/eccov4r2_spfh2m',
(PID.TID 0000.0001) > precipfile        = 'forcing_baseline2/eccov4r2_rain',
(PID.TID 0000.0001) > wspeedfile        = 'forcing_baseline2/eccov4r2_wspeed',
(PID.TID 0000.0001) > swdownfile        = 'forcing_baseline2/eccov4r2_dsw',
(PID.TID 0000.0001) > lwdownfile        = 'forcing_baseline2/eccov4r2_dlw',
(PID.TID 0000.0001) >#
(PID.TID 0000.0001) > ustressstartdate1   = 19920101,
(PID.TID 0000.0001) > ustressstartdate2   = 030000,
(PID.TID 0000.0001) > ustressperiod       = 21600.0,
(PID.TID 0000.0001) >#
(PID.TID 0000.0001) > vstressstartdate1   = 19920101,
(PID.TID 0000.0001) > vstressstartdate2   = 030000,
(PID.TID 0000.0001) > vstressperiod       = 21600.0,
(PID.TID 0000.0001) >#
(PID.TID 0000.0001) > atempstartdate1   = 19920101,
(PID.TID 0000.0001) > atempstartdate2   = 030000,
(PID.TID 0000.0001) > atempperiod       = 21600.0,
(PID.TID 0000.0001) >#
(PID.TID 0000.0001) > aqhstartdate1     = 19920101,
(PID.TID 0000.0001) > aqhstartdate2     = 030000,
(PID.TID 0000.0001) > aqhperiod         = 21600.0,
(PID.TID 0000.0001) >#
(PID.TID 0000.0001) > precipstartdate1  = 19920101,
(PID.TID 0000.0001) > precipstartdate2  = 030000,
(PID.TID 0000.0001) > precipperiod      = 21600.0,
(PID.TID 0000.0001) >#
(PID.TID 0000.0001) > runofffile        = 'runoff.bin',
(PID.TID 0000.0001) > runoffperiod      = -12,
(PID.TID 0000.0001) >#
(PID.TID 0000.0001) > uwindstartdate1   = 19920101,
(PID.TID 0000.0001) > uwindstartdate2   = 030000,
(PID.TID 0000.0001) > uwindperiod       = 21600.0,
(PID.TID 0000.0001) >#
(PID.TID 0000.0001) > vwindstartdate1   = 19920101,
(PID.TID 0000.0001) > vwindstartdate2   = 030000,
(PID.TID 0000.0001) > vwindperiod       = 21600.0,
(PID.TID 0000.0001) >#
(PID.TID 0000.0001) > wspeedstartdate1   = 19920101,
(PID.TID 0000.0001) > wspeedstartdate2   = 030000,
(PID.TID 0000.0001) > wspeedperiod       = 21600.0,
(PID.TID 0000.0001) >#
(PID.TID 0000.0001) > swdownstartdate1  = 19920101,
(PID.TID 0000.0001) > swdownstartdate2  = 030000,
(PID.TID 0000.0001) > swdownperiod      = 21600.0,
(PID.TID 0000.0001) >#
(PID.TID 0000.0001) > lwdownstartdate1  = 19920101,
(PID.TID 0000.0001) > lwdownstartdate2  = 030000,
(PID.TID 0000.0001) > lwdownperiod      = 21600.0,
(PID.TID 0000.0001) >#
(PID.TID 0000.0001) > apressurestartdate1   = 19920101,
(PID.TID 0000.0001) > apressurestartdate2   = 030000,
(PID.TID 0000.0001) > apressureperiod       = 21600.0,
(PID.TID 0000.0001) >#
(PID.TID 0000.0001) > climsstperiod     = -12.,
(PID.TID 0000.0001) >#climsssfile       = 'SSS_WPv1_M_eccollc_90x50.bin',
(PID.TID 0000.0001) > climsssperiod     = -12.,
(PID.TID 0000.0001) >#climsssTauRelax   = 15768000.,
(PID.TID 0000.0001) > &
(PID.TID 0000.0001) >#
(PID.TID 0000.0001) > &EXF_NML_03
(PID.TID 0000.0001) >#NOT FOR EIG exf_offset_atemp  = 273.3971,
(PID.TID 0000.0001) > exf_offset_atemp  = 273.15,
(PID.TID 0000.0001) >#NOT FOR NEW RUNOFF FIELD exf_inscal_runoff = 3.1710e-08,
(PID.TID 0000.0001) > exf_inscal_swdown = -1.0,
(PID.TID 0000.0001) >#the value I would now use, if I started over. But to recover old results ...
(PID.TID 0000.0001) >#exf_inscal_lwdown = -1.0,
(PID.TID 0000.0001) >#... old results, where ocean emissivity was wrongly treated as 1 for lwdown:
(PID.TID 0000.0001) > exf_inscal_lwdown = -1.0,
(PID.TID 0000.0001) > exf_inscal_ustress = -1.0,
(PID.TID 0000.0001) > exf_inscal_vstress = -1.0,
(PID.TID 0000.0001) ># to compensate for sea level rise for nlfs/realFWF
(PID.TID 0000.0001) >#precip_exfremo_intercept = 1.073E-9,
(PID.TID 0000.0001) >#precip_exfremo_slope = -3.340E-18,
(PID.TID 0000.0001) > &
(PID.TID 0000.0001) >#
(PID.TID 0000.0001) > &EXF_NML_04
(PID.TID 0000.0001) > ustress_interpMethod = 0,
(PID.TID 0000.0001) > vstress_interpMethod = 0,
(PID.TID 0000.0001) > atemp_interpMethod = 0,
(PID.TID 0000.0001) > aqh_interpMethod = 0,
(PID.TID 0000.0001) > precip_interpMethod = 0,
(PID.TID 0000.0001) > wspeed_interpMethod = 0,
(PID.TID 0000.0001) > swdown_interpMethod = 0,
(PID.TID 0000.0001) > lwdown_interpMethod = 0,
(PID.TID 0000.0001) > runoff_interpMethod = 0,
(PID.TID 0000.0001) > climsss_interpMethod = 0,
(PID.TID 0000.0001) >#
(PID.TID 0000.0001) > &
(PID.TID 0000.0001) >
(PID.TID 0000.0001) 
(PID.TID 0000.0001) EXF_READPARMS: reading EXF_NML_01
(PID.TID 0000.0001) EXF_READPARMS: reading EXF_NML_02
(PID.TID 0000.0001) EXF_READPARMS: reading EXF_NML_03
(PID.TID 0000.0001) EXF_READPARMS: reading EXF_NML_04
(PID.TID 0000.0001) EXF_READPARMS: finished reading data.exf
(PID.TID 0000.0001)  GGL90_READPARMS: opening data.ggl90
(PID.TID 0000.0001)  OPEN_COPY_DATA_FILE: opening file data.ggl90
(PID.TID 0000.0001) // =======================================================
(PID.TID 0000.0001) // Parameter file "data.ggl90"
(PID.TID 0000.0001) // =======================================================
(PID.TID 0000.0001) ># =====================================================================
(PID.TID 0000.0001) ># | Parameters for Gaspar et al. (1990)'s TKE vertical mixing scheme  |
(PID.TID 0000.0001) ># =====================================================================
(PID.TID 0000.0001) > &GGL90_PARM01
(PID.TID 0000.0001) ># GGL90taveFreq = 345600000.,
(PID.TID 0000.0001) ># GGL90dumpFreq = 86400.,
(PID.TID 0000.0001) ># GGL90writeState=.FALSE.,
(PID.TID 0000.0001) ># GGL90diffTKEh=3.e3,
(PID.TID 0000.0001) > GGL90alpha=30.,
(PID.TID 0000.0001) ># GGL90TKEFile = 'TKE_init.bin',
(PID.TID 0000.0001) > GGL90TKEmin  = 1.e-7,
(PID.TID 0000.0001) > GGL90TKEbottom = 1.e-6,
(PID.TID 0000.0001) > mxlMaxFlag =2,
(PID.TID 0000.0001) > mxlSurfFlag=.TRUE.,
(PID.TID 0000.0001) > &
(PID.TID 0000.0001) 
(PID.TID 0000.0001)  GGL90_READPARMS: finished reading data.ggl90
(PID.TID 0000.0001) // =======================================================
(PID.TID 0000.0001) // GGL90 configuration
(PID.TID 0000.0001) // =======================================================
(PID.TID 0000.0001) GGL90dumpFreq =   /* GGL90 state write out interval ( s ). */
(PID.TID 0000.0001)                 0.000000000000000E+00
(PID.TID 0000.0001)     ;
(PID.TID 0000.0001) GGL90taveFreq =   /* GGL90 averaging interval ( s ). */
(PID.TID 0000.0001)                 0.000000000000000E+00
(PID.TID 0000.0001)     ;
(PID.TID 0000.0001) GGL90mixingMAPS =   /* GGL90 IO flag. */
(PID.TID 0000.0001)                   F
(PID.TID 0000.0001)     ;
(PID.TID 0000.0001) GGL90writeState =   /* GGL90 IO flag. */
(PID.TID 0000.0001)                   F
(PID.TID 0000.0001)     ;
(PID.TID 0000.0001) GGL90ck =   /* GGL90 viscosity parameter. */
(PID.TID 0000.0001)                 1.000000000000000E-01
(PID.TID 0000.0001)     ;
(PID.TID 0000.0001) GGL90ceps =   /* GGL90 dissipation parameter. */
(PID.TID 0000.0001)                 7.000000000000000E-01
(PID.TID 0000.0001)     ;
(PID.TID 0000.0001) GGL90alpha =   /* GGL90 TKE diffusivity parameter. */
(PID.TID 0000.0001)                 3.000000000000000E+01
(PID.TID 0000.0001)     ;
(PID.TID 0000.0001) GGL90m2 =   /* GGL90 wind stress to vertical stress ratio. */
(PID.TID 0000.0001)                 3.750000000000000E+00
(PID.TID 0000.0001)     ;
(PID.TID 0000.0001) GGL90TKEmin =   /* GGL90 minimum kinetic energy ( m^2/s^2 ). */
(PID.TID 0000.0001)                 1.000000000000000E-07
(PID.TID 0000.0001)     ;
(PID.TID 0000.0001) GGL90TKEsurfMin =   /* GGL90 minimum surface kinetic energy ( m^2/s^2 ). */
(PID.TID 0000.0001)                 1.000000000000000E-04
(PID.TID 0000.0001)     ;
(PID.TID 0000.0001) GGL90TKEbottom =   /* GGL90 bottom kinetic energy ( m^2/s^2 ). */
(PID.TID 0000.0001)                 1.000000000000000E-06
(PID.TID 0000.0001)     ;
(PID.TID 0000.0001) GGL90viscMax =   /* GGL90 upper limit for viscosity ( m^2/s ). */
(PID.TID 0000.0001)                 1.000000000000000E+02
(PID.TID 0000.0001)     ;
(PID.TID 0000.0001) GGL90diffMax =   /* GGL90 upper limit for diffusivity ( m^2/s ). */
(PID.TID 0000.0001)                 1.000000000000000E+02
(PID.TID 0000.0001)     ;
(PID.TID 0000.0001) GGL90diffTKEh =   /* GGL90 horizontal diffusivity for TKE ( m^2/s ). */
(PID.TID 0000.0001)                 0.000000000000000E+00
(PID.TID 0000.0001)     ;
(PID.TID 0000.0001) GGL90mixingLengthMin =   /* GGL90 minimum mixing length ( m ). */
(PID.TID 0000.0001)                 1.000000000000000E-08
(PID.TID 0000.0001)     ;
(PID.TID 0000.0001) mxlMaxFlag =   /* Flag for limiting mixing-length method */
(PID.TID 0000.0001)                       2
(PID.TID 0000.0001)     ;
(PID.TID 0000.0001) mxlSurfFlag =   /* GGL90 flag for near surface mixing. */
(PID.TID 0000.0001)                   T
(PID.TID 0000.0001)     ;
(PID.TID 0000.0001) calcMeanVertShear = /* calc Mean of Vert.Shear (vs shear of Mean flow) */
(PID.TID 0000.0001)                   F
(PID.TID 0000.0001)     ;
(PID.TID 0000.0001) GGL90: GGL90TKEFile =
(PID.TID 0000.0001) GGL90writeState =   /* GGL90 Boundary condition flag. */
(PID.TID 0000.0001)                   T
(PID.TID 0000.0001)     ;
(PID.TID 0000.0001) // =======================================================
(PID.TID 0000.0001) // End of GGL90 config. summary
(PID.TID 0000.0001) // =======================================================
(PID.TID 0000.0001) 
(PID.TID 0000.0001)  GM_READPARMS: opening data.gmredi
(PID.TID 0000.0001)  OPEN_COPY_DATA_FILE: opening file data.gmredi
(PID.TID 0000.0001) // =======================================================
(PID.TID 0000.0001) // Parameter file "data.gmredi"
(PID.TID 0000.0001) // =======================================================
(PID.TID 0000.0001) ># GM+Redi package parameters:
(PID.TID 0000.0001) >#     GM_Small_Number  :: epsilon used in computing the slope
(PID.TID 0000.0001) >#     GM_slopeSqCutoff :: slope^2 cut-off value
(PID.TID 0000.0001) >
(PID.TID 0000.0001) >#-from MOM :
(PID.TID 0000.0001) ># GM_background_K: 	G & Mc.W  diffusion coefficient
(PID.TID 0000.0001) ># GM_maxSlope    :	max slope of isopycnals
(PID.TID 0000.0001) ># GM_Scrit       :	transition for scaling diffusion coefficient
(PID.TID 0000.0001) ># GM_Sd          :	half width scaling for diffusion coefficient
(PID.TID 0000.0001) ># GM_taper_scheme:	slope clipping or one of the tapering schemes
(PID.TID 0000.0001) ># GM_Kmin_horiz  :	horizontal diffusion minimum value
(PID.TID 0000.0001) >
(PID.TID 0000.0001) >#-Option parameters (needs to "define" options in GMREDI_OPTIONS.h")
(PID.TID 0000.0001) ># GM_isopycK     :	isopycnal diffusion coefficient (default=GM_background_K)
(PID.TID 0000.0001) ># GM_AdvForm     :	turn on GM Advective form       (default=Skew flux form)
(PID.TID 0000.0001) >
(PID.TID 0000.0001) > &GM_PARM01
(PID.TID 0000.0001) >  GM_Small_Number  = 1.D-20,
(PID.TID 0000.0001) >  GM_slopeSqCutoff = 1.D+08,
(PID.TID 0000.0001) >  GM_AdvForm         = .TRUE.,
(PID.TID 0000.0001) >  GM_isopycK         = 1.D+3,
(PID.TID 0000.0001) >  GM_background_K    = 1.D+3,
(PID.TID 0000.0001) >  GM_maxSlope        = 4.D-3,
(PID.TID 0000.0001) >  GM_taper_scheme    = 'stableGmAdjTap',
(PID.TID 0000.0001) >  GM_Kmin_horiz      = 100.,
(PID.TID 0000.0001) >  GM_Scrit           = 4.D-3,
(PID.TID 0000.0001) >  GM_Sd              = 1.D-3,
(PID.TID 0000.0001) >#
(PID.TID 0000.0001) >###  GM_Visbeck_alpha   = 1.5D-2,
(PID.TID 0000.0001) >###  GM_Visbeck_alpha   = 0.D0,
(PID.TID 0000.0001) >###  GM_Visbeck_length  = 2.D+5,
(PID.TID 0000.0001) >###  GM_Visbeck_depth   = 1.D+3,
(PID.TID 0000.0001) >###  GM_Visbeck_maxval_K= 2.5D+3,
(PID.TID 0000.0001) > &
(PID.TID 0000.0001) >
(PID.TID 0000.0001) >
(PID.TID 0000.0001) 
(PID.TID 0000.0001)  GM_READPARMS: finished reading data.gmredi
(PID.TID 0000.0001) 
(PID.TID 0000.0001)  SEAICE_READPARMS: opening data.seaice
(PID.TID 0000.0001)  OPEN_COPY_DATA_FILE: opening file data.seaice
(PID.TID 0000.0001) // =======================================================
(PID.TID 0000.0001) // Parameter file "data.seaice"
(PID.TID 0000.0001) // =======================================================
(PID.TID 0000.0001) ># SEAICE parameters
(PID.TID 0000.0001) > &SEAICE_PARM01
(PID.TID 0000.0001) >      SEAICEuseTILT=.FALSE.,
(PID.TID 0000.0001) >      SEAICEpresH0=2.,
(PID.TID 0000.0001) >      SEAICEpresPow0=1,
(PID.TID 0000.0001) >      SEAICEpresPow1=3,
(PID.TID 0000.0001) >      SEAICE_multDim=1,
(PID.TID 0000.0001) >      SEAICErestoreUnderIce=.TRUE.,
(PID.TID 0000.0001) >      SEAICE_area_max=0.95,
(PID.TID 0000.0001) >#for backward compatibility (before 2011 june 19, those were the defaults)
(PID.TID 0000.0001) >#     SEAICE_area_floor=0.15,
(PID.TID 0000.0001) >#     SEAICE_area_reg=0.15,
(PID.TID 0000.0001) >      SEAICE_salt0=4.,
(PID.TID 0000.0001) ># for long time step:
(PID.TID 0000.0001) >#      SEAICE_deltaTevp   = 720.,
(PID.TID 0000.0001) ># for regular time step:
(PID.TID 0000.0001) >#      SEAICE_deltaTevp   = 60.,
(PID.TID 0000.0001) ># for lsr:
(PID.TID 0000.0001) >      LSR_ERROR          = 2.e-4,
(PID.TID 0000.0001) >      SEAICEuseDYNAMICS  = .TRUE.,
(PID.TID 0000.0001) ># BAD OPTION -- DO NOT USE -- SEAICE_maskRHS     = .TRUE.,
(PID.TID 0000.0001) >      MIN_ATEMP          = -40.,
(PID.TID 0000.0001) >      MIN_TICE           = -40.,
(PID.TID 0000.0001) >      SEAICEadvScheme    = 30,
(PID.TID 0000.0001) >      SEAICEuseFluxForm = .TRUE.,
(PID.TID 0000.0001) >      SEAICEadvSnow      = .TRUE.,
(PID.TID 0000.0001) >#      SEAICEadvSalt      = .TRUE.,
(PID.TID 0000.0001) >      SEAICEdiffKhHeff   = 400.,
(PID.TID 0000.0001) >      SEAICEdiffKhArea   = 400.,
(PID.TID 0000.0001) >      SEAICEdiffKhSnow   = 400.,
(PID.TID 0000.0001) >#      SEAICEdiffKhSalt   = 400.,
(PID.TID 0000.0001) >      SEAICEuseFlooding  = .TRUE.,
(PID.TID 0000.0001) >      SEAICE_mcPheePiston= 3.858024691358025E-05,
(PID.TID 0000.0001) >      SEAICE_frazilFrac  = 1.,
(PID.TID 0000.0001) >      SEAICE_mcPheeTaper = 0.,
(PID.TID 0000.0001) >      SEAICE_areaLossFormula=2,
(PID.TID 0000.0001) >      SEAICEheatConsFix  = .TRUE.,
(PID.TID 0000.0001) >      SEAICE_tempFrz0    = -1.96,
(PID.TID 0000.0001) >      SEAICE_dTempFrz_dS = 0.,
(PID.TID 0000.0001) >      SEAICEuseMetricTerms = .TRUE.,
(PID.TID 0000.0001) >      SEAICE_no_slip     = .FALSE.,
(PID.TID 0000.0001) >      SEAICE_clipVelocities = .TRUE.,
(PID.TID 0000.0001) >#take 33% out of (1-albedo)
(PID.TID 0000.0001) >      SEAICE_dryIceAlb   = 0.84,
(PID.TID 0000.0001) >      SEAICE_wetIceAlb   = 0.78,
(PID.TID 0000.0001) >      SEAICE_drySnowAlb  = 0.90,
(PID.TID 0000.0001) >      SEAICE_wetSnowAlb  = 0.8 ,
(PID.TID 0000.0001) >#default albedos
(PID.TID 0000.0001) >      SEAICE_dryIceAlb_south   = 0.75
(PID.TID 0000.0001) >      SEAICE_wetIceAlb_south   = 0.66
(PID.TID 0000.0001) >      SEAICE_drySnowAlb_south  = 0.84
(PID.TID 0000.0001) >      SEAICE_wetSnowAlb_south  = 0.7
(PID.TID 0000.0001) > &
(PID.TID 0000.0001) >#
(PID.TID 0000.0001) > &SEAICE_PARM02
(PID.TID 0000.0001) > &
(PID.TID 0000.0001) >
(PID.TID 0000.0001) 
(PID.TID 0000.0001)  SEAICE_READPARMS: finished reading data.seaice
(PID.TID 0000.0001) SALT_PLUME_READPARMS: opening data.salt_plume
(PID.TID 0000.0001)  OPEN_COPY_DATA_FILE: opening file data.salt_plume
(PID.TID 0000.0001) // =======================================================
(PID.TID 0000.0001) // Parameter file "data.salt_plume"
(PID.TID 0000.0001) // =======================================================
(PID.TID 0000.0001) > &SALT_PLUME_PARM01
(PID.TID 0000.0001) ># SaltPlumeCriterion = 0.4D0,
(PID.TID 0000.0001) > SPsalFRAC= 0.5D0,
(PID.TID 0000.0001) >#SPsalFRAC= 0.25D0,
(PID.TID 0000.0001) >#SPsalFRAC= 0.0D0,
(PID.TID 0000.0001) > &
(PID.TID 0000.0001) 
(PID.TID 0000.0001) SALT_PLUME_READPARMS: finished reading data.salt_plume
(PID.TID 0000.0001) OPTIM_READPARMS: opening data.optim
(PID.TID 0000.0001)  OPEN_COPY_DATA_FILE: opening file data.optim
(PID.TID 0000.0001) // =======================================================
(PID.TID 0000.0001) // Parameter file "data.optim"
(PID.TID 0000.0001) // =======================================================
(PID.TID 0000.0001) >#
(PID.TID 0000.0001) ># ********************************
(PID.TID 0000.0001) ># Off-line optimization parameters
(PID.TID 0000.0001) ># ********************************
(PID.TID 0000.0001) > &OPTIM
(PID.TID 0000.0001) > optimcycle=12,
(PID.TID 0000.0001) > &
(PID.TID 0000.0001) 
(PID.TID 0000.0001) OPTIM_READPARMS: finished reading data.optim
(PID.TID 0000.0001) CTRL_READPARMS: opening data.ctrl
(PID.TID 0000.0001)  OPEN_COPY_DATA_FILE: opening file data.ctrl
(PID.TID 0000.0001) // =======================================================
(PID.TID 0000.0001) // Parameter file "data.ctrl"
(PID.TID 0000.0001) // =======================================================
(PID.TID 0000.0001) ># *********************
(PID.TID 0000.0001) ># ECCO control variables
(PID.TID 0000.0001) ># *********************
(PID.TID 0000.0001) > &ctrl_nml
(PID.TID 0000.0001) > doSinglePrecTapelev=.TRUE.,
(PID.TID 0000.0001) >#to start from given xx*00.data files
(PID.TID 0000.0001) >  doinitxx = .FALSE.,
(PID.TID 0000.0001) >  doMainUnpack = .FALSE.,
(PID.TID 0000.0001) >#to start from given ecco_ctrl... files
(PID.TID 0000.0001) ># doinitxx = .FALSE.,
(PID.TID 0000.0001) > &
(PID.TID 0000.0001) >#
(PID.TID 0000.0001) ># *********************
(PID.TID 0000.0001) ># names for ctrl_pack/unpack
(PID.TID 0000.0001) ># *********************
(PID.TID 0000.0001) > &ctrl_packnames
(PID.TID 0000.0001) > &
(PID.TID 0000.0001) >#
(PID.TID 0000.0001) ># *********************
(PID.TID 0000.0001) ># names for CTRL_GENARR2D,3D CTRL_GENTIM2D
(PID.TID 0000.0001) ># *********************
(PID.TID 0000.0001) > &CTRL_NML_GENARR
(PID.TID 0000.0001) >#
(PID.TID 0000.0001) > xx_genarr3d_weight(1) = 'wt_ones.data',
(PID.TID 0000.0001) > xx_genarr3d_file(1)='xx_kapgm',
(PID.TID 0000.0001) > mult_genarr3d(1) = 0.,
(PID.TID 0000.0001) >#
(PID.TID 0000.0001) > xx_genarr3d_weight(2) = 'wt_ones.data',
(PID.TID 0000.0001) > xx_genarr3d_file(2)='xx_kapredi',
(PID.TID 0000.0001) > mult_genarr3d(2) = 0.,
(PID.TID 0000.0001) >#
(PID.TID 0000.0001) > xx_genarr3d_weight(3) = 'wt_ones.data',
(PID.TID 0000.0001) > xx_genarr3d_file(3)='xx_diffkr',
(PID.TID 0000.0001) > mult_genarr3d(3) = 0.,
(PID.TID 0000.0001) >#
(PID.TID 0000.0001) > &
(PID.TID 0000.0001) 
(PID.TID 0000.0001) CTRL_READPARMS: finished reading data.ctrl
(PID.TID 0000.0001) COST_READPARMS: opening data.cost
(PID.TID 0000.0001)  OPEN_COPY_DATA_FILE: opening file data.cost
(PID.TID 0000.0001) // =======================================================
(PID.TID 0000.0001) // Parameter file "data.cost"
(PID.TID 0000.0001) // =======================================================
(PID.TID 0000.0001) >#
(PID.TID 0000.0001) >#
(PID.TID 0000.0001) ># ******************
(PID.TID 0000.0001) ># cost function
(PID.TID 0000.0001) ># ******************
(PID.TID 0000.0001) > &COST_NML
(PID.TID 0000.0001) > &
(PID.TID 0000.0001) 
(PID.TID 0000.0001) COST_READPARMS: finished reading data.cost
(PID.TID 0000.0001) SMOOTH_READPARMS: opening data.smooth
(PID.TID 0000.0001)  OPEN_COPY_DATA_FILE: opening file data.smooth
(PID.TID 0000.0001) // =======================================================
(PID.TID 0000.0001) // Parameter file "data.smooth"
(PID.TID 0000.0001) // =======================================================
(PID.TID 0000.0001) > &SMOOTH_NML
(PID.TID 0000.0001) > smooth2Dnbt(1)=300
(PID.TID 0000.0001) > smooth2Dtype(1)=1
(PID.TID 0000.0001) > smooth2Dsize(1)=2
(PID.TID 0000.0001) > smooth2Dfilter(1)=0
(PID.TID 0000.0001) > smooth3Dnbt(1)=300
(PID.TID 0000.0001) > smooth3DtypeH(1)=1
(PID.TID 0000.0001) > smooth3DsizeH(1)=3
(PID.TID 0000.0001) > smooth3DtypeZ(1)=1
(PID.TID 0000.0001) > smooth3DsizeZ(1)=3
(PID.TID 0000.0001) > smooth3Dfilter(1)=0
(PID.TID 0000.0001) > &
(PID.TID 0000.0001) 
(PID.TID 0000.0001) SMOOTH_READPARMS: finished reading data.smooth
(PID.TID 0000.0001) ECCO_READPARMS: opening data.ecco
(PID.TID 0000.0001)  OPEN_COPY_DATA_FILE: opening file data.ecco
(PID.TID 0000.0001) // =======================================================
(PID.TID 0000.0001) // Parameter file "data.ecco"
(PID.TID 0000.0001) // =======================================================
(PID.TID 0000.0001) ># *******************
(PID.TID 0000.0001) ># ECCO cost functions
(PID.TID 0000.0001) ># *******************
(PID.TID 0000.0001) > &ECCO_COST_NML
(PID.TID 0000.0001) >#
(PID.TID 0000.0001) > &
(PID.TID 0000.0001) ># ***************************
(PID.TID 0000.0001) ># ECCO generic cost functions
(PID.TID 0000.0001) ># ***************************
(PID.TID 0000.0001) > &ECCO_GENCOST_NML
(PID.TID 0000.0001) > gencost_avgperiod(1)  = 'month',
(PID.TID 0000.0001) > gencost_barfile(1) = 'm_siv4_area',
(PID.TID 0000.0001) > gencost_datafile(1) = 'nsidc79_monthly',
(PID.TID 0000.0001) > gencost_errfile(1) = 'sigma_iceconc_eccollc.bin',
(PID.TID 0000.0001) > gencost_name(1) = 'siv4-conc',
(PID.TID 0000.0001) > gencost_spmin(1) = -999.,
(PID.TID 0000.0001) > gencost_spmax(1) = 999.,
(PID.TID 0000.0001) > gencost_spzero(1) = -9999.,
(PID.TID 0000.0001) > gencost_outputlevel(1)=0,
(PID.TID 0000.0001) > mult_gencost(1) = 0.,
(PID.TID 0000.0001) >#
(PID.TID 0000.0001) > gencost_avgperiod(2)  = 'month',
(PID.TID 0000.0001) > gencost_barfile(2) = 'm_siv4_deconc',
(PID.TID 0000.0001) > gencost_name(2) = 'siv4-deconc',
(PID.TID 0000.0001) > gencost_datafile(2) = 'nsidc79_monthly',
(PID.TID 0000.0001) > gencost_spmin(2) = -999.,
(PID.TID 0000.0001) > gencost_spmax(2) = 999.,
(PID.TID 0000.0001) > gencost_spzero(2) = -9999.,
(PID.TID 0000.0001) > gencost_outputlevel(2)=1,
(PID.TID 0000.0001) > mult_gencost(2) = 1.,
(PID.TID 0000.0001) >#
(PID.TID 0000.0001) > gencost_avgperiod(3)  = 'month',
(PID.TID 0000.0001) > gencost_barfile(3) = 'm_siv4_exconc',
(PID.TID 0000.0001) > gencost_name(3) = 'siv4-exconc',
(PID.TID 0000.0001) > gencost_datafile(3) = 'nsidc79_monthly',
(PID.TID 0000.0001) > gencost_spmin(3) = -999.,
(PID.TID 0000.0001) > gencost_spmax(3) = 999.,
(PID.TID 0000.0001) > gencost_spzero(3) = -9999.,
(PID.TID 0000.0001) > gencost_outputlevel(3)=0,
(PID.TID 0000.0001) > mult_gencost(3) = 0.,
(PID.TID 0000.0001) >#
(PID.TID 0000.0001) > gencost_avgperiod(4)  = 'month',
(PID.TID 0000.0001) > gencost_barfile(4) = 'm_sst_mon',
(PID.TID 0000.0001) > gencost_datafile(4) = 'reynolds_oiv2_r1',
(PID.TID 0000.0001) > gencost_errfile(4) = 'sigma_surf_0p5.bin',
(PID.TID 0000.0001) > gencost_name(4) = 'sst-reynolds',
(PID.TID 0000.0001) > gencost_spmin(4) = -1.8,
(PID.TID 0000.0001) > gencost_spmax(4) = 40.,
(PID.TID 0000.0001) > gencost_spzero(4) = 0.,
(PID.TID 0000.0001) > gencost_outputlevel(4)=1,
(PID.TID 0000.0001) > mult_gencost(4) = 1.,
(PID.TID 0000.0001) >#
(PID.TID 0000.0001) > gencost_avgperiod(5)  = 'month',
(PID.TID 0000.0001) > gencost_barfile(5) = 'm_sst_mon',
(PID.TID 0000.0001) > gencost_datafile(5) = 'tmi_amsre_oisst_r1',
(PID.TID 0000.0001) > gencost_errfile(5) = 'sigma_surf_0p5.bin',
(PID.TID 0000.0001) > gencost_name(5) = 'sst-tmi-amsre',
(PID.TID 0000.0001) > gencost_startdate1(5) = 19980101,
(PID.TID 0000.0001) > gencost_startdate2(5)= 00000,
(PID.TID 0000.0001) > gencost_spmin(5) = -1.8,
(PID.TID 0000.0001) > gencost_spmax(5) = 40.,
(PID.TID 0000.0001) > gencost_spzero(5) = 0.,
(PID.TID 0000.0001) > gencost_outputlevel(5)=0,
(PID.TID 0000.0001) > mult_gencost(5) = 0.,
(PID.TID 0000.0001) >#
(PID.TID 0000.0001) > gencost_avgperiod(6)  = 'month',
(PID.TID 0000.0001) > gencost_barfile(6) = 'm_bp_mon',
(PID.TID 0000.0001) > gencost_datafile(6) = 'GRACE_jpl_rl05m',
(PID.TID 0000.0001) > gencost_errfile(6) = 'GRACE_jpl_rl05m_err',
(PID.TID 0000.0001) > gencost_name(6) = 'grace-mascons',
(PID.TID 0000.0001) > gencost_startdate1(6) = 20020101,
(PID.TID 0000.0001) > gencost_startdate2(6)= 00000,
(PID.TID 0000.0001) > gencost_spmin(6) = -40,
(PID.TID 0000.0001) > gencost_spmax(6) = 40.,
(PID.TID 0000.0001) > gencost_spzero(6) = -999.,
(PID.TID 0000.0001) > gencost_preproc(1,6)='anom',
(PID.TID 0000.0001) ># convert from m2/s2 to cm
(PID.TID 0000.0001) > gencost_preproc(2,6)='factor',
(PID.TID 0000.0001) > gencost_preproc_r(2,6)=10.1937,
(PID.TID 0000.0001) > gencost_posproc(1,6)='smooth',
(PID.TID 0000.0001) > gencost_posproc_c(1,6)='sshv4_scale_3points.bin',
(PID.TID 0000.0001) > gencost_posproc_i(1,6)=300,
(PID.TID 0000.0001) > gencost_outputlevel(6)=0,
(PID.TID 0000.0001) > mult_gencost(6) = 0.,
(PID.TID 0000.0001) >#
(PID.TID 0000.0001) > gencost_avgperiod(7)  = 'month',
(PID.TID 0000.0001) > gencost_barfile(7) = 'm_theta_mon',
(PID.TID 0000.0001) > gencost_datafile(7) = 'some_T_atlas.bin',
(PID.TID 0000.0001) > gencost_errfile(7) = 'sigma_T_atlas2_eccollc.bin',
(PID.TID 0000.0001) > gencost_preproc(1,7)='clim',
(PID.TID 0000.0001) > gencost_name(7) = 'thetaclim',
(PID.TID 0000.0001) > gencost_preproc_i(1,7)=12,
(PID.TID 0000.0001) ># gencost_preproc(1,7)='mean',
(PID.TID 0000.0001) ># gencost_name(7) = 'thetamean',
(PID.TID 0000.0001) ># gencost_preproc(1,7)='anom',
(PID.TID 0000.0001) ># gencost_name(7) = 'thetaanom',
(PID.TID 0000.0001) ># gencost_name(7) = 'thetarepeat',
(PID.TID 0000.0001) > gencost_spmin(7) = -1.8,
(PID.TID 0000.0001) > gencost_spmax(7) = 40.,
(PID.TID 0000.0001) > gencost_spzero(7) = 0.,
(PID.TID 0000.0001) > gencost_outputlevel(7)=1,
(PID.TID 0000.0001) > mult_gencost(7) = 1.,
(PID.TID 0000.0001) >#
(PID.TID 0000.0001) > gencost_avgperiod(8)  = 'month',
(PID.TID 0000.0001) > gencost_barfile(8) = 'm_salt_mon',
(PID.TID 0000.0001) > gencost_datafile(8) = 'some_S_atlas.bin',
(PID.TID 0000.0001) > gencost_errfile(8) = 'sigma_S_atlas2_eccollc.bin',
(PID.TID 0000.0001) > gencost_preproc(1,8)='clim',
(PID.TID 0000.0001) > gencost_name(8) = 'saltclim',
(PID.TID 0000.0001) > gencost_preproc_i(1,8)=12,
(PID.TID 0000.0001) > gencost_spmin(8) = 25.,
(PID.TID 0000.0001) > gencost_spmax(8) = 40.,
(PID.TID 0000.0001) > gencost_spzero(8) = 0.,
(PID.TID 0000.0001) > gencost_outputlevel(8)=1,
(PID.TID 0000.0001) > mult_gencost(8) = 1.,
(PID.TID 0000.0001) >#
(PID.TID 0000.0001) > gencost_avgperiod(9)  = 'day',
(PID.TID 0000.0001) > gencost_barfile(9) = 'm_ustress_day',
(PID.TID 0000.0001) > gencost_datafile(9) = 'QSCAT_Large_u_r2',
(PID.TID 0000.0001) > gencost_startdate1(9) = 19990101,
(PID.TID 0000.0001) > gencost_startdate2(9) = 00000,
(PID.TID 0000.0001) > gencost_errfile(9) = 'QSCAT_Large_u_r2.rms',
(PID.TID 0000.0001) > gencost_name(9) = 'tauZon-scat',
(PID.TID 0000.0001) > gencost_spmin(9) = -999.,
(PID.TID 0000.0001) > gencost_spmax(9) = 999.,
(PID.TID 0000.0001) > gencost_spzero(9) = 0.,
(PID.TID 0000.0001) >#typical ratio between ECMWF and QSCAT stresses
(PID.TID 0000.0001) > gencost_preproc(1,9)='factor',
(PID.TID 0000.0001) > gencost_preproc_r(1,9)=0.7,
(PID.TID 0000.0001) > gencost_outputlevel(9)=0,
(PID.TID 0000.0001) > mult_gencost(9) = 0.,
(PID.TID 0000.0001) >#
(PID.TID 0000.0001) > gencost_avgperiod(10)  = 'day',
(PID.TID 0000.0001) > gencost_barfile(10) = 'm_vstress_day',
(PID.TID 0000.0001) > gencost_datafile(10) = 'QSCAT_Large_v_r2',
(PID.TID 0000.0001) > gencost_startdate1(10) = 19990101,
(PID.TID 0000.0001) > gencost_startdate2(10) = 00000,
(PID.TID 0000.0001) > gencost_errfile(10) = 'QSCAT_Large_v_r2.rms',
(PID.TID 0000.0001) > gencost_name(10) = 'tauMer-scat',
(PID.TID 0000.0001) > gencost_spmin(10) = -999.,
(PID.TID 0000.0001) > gencost_spmax(10) = 999.,
(PID.TID 0000.0001) > gencost_spzero(10) = 0.,
(PID.TID 0000.0001) >#typical ratio between ECMWF and QSCAT stresses
(PID.TID 0000.0001) > gencost_preproc(1,10)='factor',
(PID.TID 0000.0001) > gencost_preproc_r(1,10)=0.7,
(PID.TID 0000.0001) > gencost_outputlevel(10)=0,
(PID.TID 0000.0001) > mult_gencost(10) = 0.,
(PID.TID 0000.0001) >#
(PID.TID 0000.0001) > gencost_datafile(11) = 'mdt_pak09.bin',
(PID.TID 0000.0001) > gencost_startdate1(11) = 19930101,
(PID.TID 0000.0001) > gencost_startdate2(11) = 00000,
(PID.TID 0000.0001) > gencost_enddate1(11) = 20041231,
(PID.TID 0000.0001) > gencost_enddate2(11) = 00000,
(PID.TID 0000.0001) > gencost_errfile(11) = 'sigma_MDT_glob_eccollc.bin',
(PID.TID 0000.0001) > gencost_name(11) = 'sshv4-mdt',
(PID.TID 0000.0001) > gencost_scalefile(11) = 'sshv4_scale_1p5points.bin',
(PID.TID 0000.0001) > gencost_outputlevel(11)=1,
(PID.TID 0000.0001) > mult_gencost(11) = 1.,
(PID.TID 0000.0001) >#
(PID.TID 0000.0001) > gencost_barfile(12) = 'm_eta_day',
(PID.TID 0000.0001) > gencost_datafile(12) = 'RADS_TJ_mar2016',
(PID.TID 0000.0001) > gencost_startdate1(12) = 19920101,
(PID.TID 0000.0001) > gencost_startdate2(12) = 00000,
(PID.TID 0000.0001) > gencost_avgperiod(12)  = 'day',
(PID.TID 0000.0001) > gencost_errfile(12) = 'slaerr_gridscale_r5.err',
(PID.TID 0000.0001) > gencost_name(12) = 'sshv4-tp',
(PID.TID 0000.0001) > gencost_outputlevel(12)=1,
(PID.TID 0000.0001) > mult_gencost(12) = 1.,
(PID.TID 0000.0001) >#
(PID.TID 0000.0001) > gencost_datafile(13) = 'RADS_ERS_ENV_SA_mar2016',
(PID.TID 0000.0001) > gencost_startdate1(13) = 19920101,
(PID.TID 0000.0001) > gencost_startdate2(13) = 00000,
(PID.TID 0000.0001) > gencost_avgperiod(13)  = 'day',
(PID.TID 0000.0001) > gencost_errfile(13) = 'slaerr_gridscale_r5.err',
(PID.TID 0000.0001) > gencost_name(13) = 'sshv4-ers',
(PID.TID 0000.0001) > gencost_outputlevel(13)=1,
(PID.TID 0000.0001) > mult_gencost(13) = 1.,
(PID.TID 0000.0001) >#
(PID.TID 0000.0001) > gencost_datafile(14) = 'RADS_GFO_C2_mar2016',
(PID.TID 0000.0001) > gencost_startdate1(14) = 19920101,
(PID.TID 0000.0001) > gencost_startdate2(14) = 00000,
(PID.TID 0000.0001) > gencost_avgperiod(14)  = 'day',
(PID.TID 0000.0001) > gencost_errfile(14) = 'slaerr_gridscale_r5.err',
(PID.TID 0000.0001) > gencost_name(14) = 'sshv4-gfo',
(PID.TID 0000.0001) > gencost_outputlevel(14)=1,
(PID.TID 0000.0001) > mult_gencost(14) = 1.,
(PID.TID 0000.0001) >#
(PID.TID 0000.0001) > gencost_errfile(15) = 'slaerr_largescale_r5.err',
(PID.TID 0000.0001) > gencost_name(15) = 'sshv4-lsc',
(PID.TID 0000.0001) > gencost_scalefile(15) = 'sshv4_scale_3points.bin',
(PID.TID 0000.0001) > gencost_outputlevel(15)=1,
(PID.TID 0000.0001) > mult_gencost(15) = 1.,
(PID.TID 0000.0001) >#
(PID.TID 0000.0001) > gencost_name(16) = 'sshv4-gmsl',
(PID.TID 0000.0001) > gencost_outputlevel(16)=1,
(PID.TID 0000.0001) > mult_gencost(16) = 0.001,
(PID.TID 0000.0001) >#
(PID.TID 0000.0001) > gencost_avgperiod(17)  = 'month',
(PID.TID 0000.0001) > gencost_barfile(17) = 'm_salt_mon',
(PID.TID 0000.0001) > gencost_datafile(17) = 'some_S_atlas.bin',
(PID.TID 0000.0001) > gencost_errfile(17) = 'sigma_surf_0p5.bin',
(PID.TID 0000.0001) > gencost_name(17) = 'sss_repeat',
(PID.TID 0000.0001) > gencost_spmin(17) = 25.,
(PID.TID 0000.0001) > gencost_spmax(17) = 40.,
(PID.TID 0000.0001) > gencost_spzero(17) = 0.,
(PID.TID 0000.0001) > gencost_outputlevel(17)=0,
(PID.TID 0000.0001) > mult_gencost(17) = 0.,
(PID.TID 0000.0001) > &
(PID.TID 0000.0001) >#
(PID.TID 0000.0001) 
(PID.TID 0000.0001) ECCO_READPARMS: finished reading #1: ecco_cost_nml
(PID.TID 0000.0001) ECCO_READPARMS: finished reading #2: ecco_gencost_nml
(PID.TID 0000.0001) ECCO_READPARMS: done
(PID.TID 0000.0001) PROFILES_READPARMS: opening data.profiles
(PID.TID 0000.0001)  OPEN_COPY_DATA_FILE: opening file data.profiles
(PID.TID 0000.0001) // =======================================================
(PID.TID 0000.0001) // Parameter file "data.profiles"
(PID.TID 0000.0001) // =======================================================
(PID.TID 0000.0001) >#
(PID.TID 0000.0001) ># ******************
(PID.TID 0000.0001) ># PROFILES cost function
(PID.TID 0000.0001) ># ******************
(PID.TID 0000.0001) > &PROFILES_NML
(PID.TID 0000.0001) >#
(PID.TID 0000.0001) > profilesDir='profiles',
(PID.TID 0000.0001) > profilesDoGenGrid=.TRUE.,
(PID.TID 0000.0001) >#
(PID.TID 0000.0001) > profilesfiles(1)= 'argo_feb2016_set1',
(PID.TID 0000.0001) > profilesfiles(2)= 'argo_feb2016_set2',
(PID.TID 0000.0001) > profilesfiles(3)= 'argo_feb2016_set3',
(PID.TID 0000.0001) > profilesfiles(4)= 'argo_feb2016_set4',
(PID.TID 0000.0001) > profilesfiles(5)= 'argo_feb2016_set5',
(PID.TID 0000.0001) > profilesfiles(6)= 'argo_feb2016_set6',
(PID.TID 0000.0001) >#
(PID.TID 0000.0001) > profilesfiles(8)= 'climode_jan2016',
(PID.TID 0000.0001) > profilesfiles(9)= 'ctd_jan2016',
(PID.TID 0000.0001) > profilesfiles(10)= 'itp_jan2016',
(PID.TID 0000.0001) > profilesfiles(11)= 'seals_jan2016',
(PID.TID 0000.0001) > profilesfiles(12)= 'xbt_jan2016',
(PID.TID 0000.0001) >#
(PID.TID 0000.0001) > &
(PID.TID 0000.0001) 
(PID.TID 0000.0001) PROFILES_READPARMS: finished reading data.profiles
(PID.TID 0000.0001)  DIAGNOSTICS_READPARMS: opening data.diagnostics
(PID.TID 0000.0001)  OPEN_COPY_DATA_FILE: opening file data.diagnostics
(PID.TID 0000.0001) // =======================================================
(PID.TID 0000.0001) // Parameter file "data.diagnostics"
(PID.TID 0000.0001) // =======================================================
(PID.TID 0000.0001) ># Diagnostic Package Choices
(PID.TID 0000.0001) >#-----------------
(PID.TID 0000.0001) ># for each output-stream:
(PID.TID 0000.0001) >#  filename(n) : prefix of the output file name (only 8.c long) for outp.stream n
(PID.TID 0000.0001) >#  frequency(n):< 0 : write snap-shot output every multiple of |frequency| (iter)
(PID.TID 0000.0001) >#               > 0 : write time-average output every multiple of frequency (iter)
(PID.TID 0000.0001) >#  levels(:,n) : list of levels to write to file (Notes: declared as REAL)
(PID.TID 0000.0001) >#                 when this entry is missing, select all common levels of this list
(PID.TID 0000.0001) >#  fields(:,n) : list of diagnostics fields (8.c) (see "available_diagnostics" file
(PID.TID 0000.0001) >#                 for the list of all available diag. in this particular config)
(PID.TID 0000.0001) >#--------------------------------------------------------------------
(PID.TID 0000.0001) >#
(PID.TID 0000.0001) > &diagnostics_list
(PID.TID 0000.0001) >#
(PID.TID 0000.0001) >   dumpatlast = .TRUE.,
(PID.TID 0000.0001) >#---
(PID.TID 0000.0001) >  frequency(2) = 2635200.0,
(PID.TID 0000.0001) >   fields(1:3,2) = 'THETA   ','SALT    ',
(PID.TID 0000.0001) >#stuff that is not quite state variables (and may not be quite
(PID.TID 0000.0001) >#synchroneous) but are added here to reduce file number
(PID.TID 0000.0001) >                 'DRHODR  ',
(PID.TID 0000.0001) >#                'KPPviscA','KPPdiffT','KPPdiffTS',
(PID.TID 0000.0001) >#                'GGL90TKE','GGL90Lmx','GGL90Prl',
(PID.TID 0000.0001) >#                'GGL90ArU','GGL90ArV','GGL90Kr ',
(PID.TID 0000.0001) >#  filename(2) = 'state_3d_set1',
(PID.TID 0000.0001) >   filename(2) = 'diags/state_3d_set1',
(PID.TID 0000.0001) >
(PID.TID 0000.0001) >#---
(PID.TID 0000.0001) >  frequency(4) = 2635200.0,
(PID.TID 0000.0001) >   fields(1:6,4) = 'ETAN    ','SIarea  ','SIheff ','SIhsnow ','sIceLoad','PHI_SURF',
(PID.TID 0000.0001) >   filename(4) = 'diags/budg_aveSURF',
(PID.TID 0000.0001) >   fileFlags(4) = 'D       ',
(PID.TID 0000.0001) >#---
(PID.TID 0000.0001) >  frequency(5) = -2635200.0,
(PID.TID 0000.0001) >   fields(1:4,5) = 'UVEL    ','VVEL    ','UVELMASS','VVELMASS',
(PID.TID 0000.0001) >   filename(5) = 'diags/budg_snapUV',
(PID.TID 0000.0001) >   timePhase(5)= 0.,
(PID.TID 0000.0001) >   fileFlags(5) = 'D       ',
(PID.TID 0000.0001) >#---
(PID.TID 0000.0001) >  frequency(6) = 2635200.0,
(PID.TID 0000.0001) >   fields(1:7,6) = 'TOTUTEND','AB_gU   ','Um_Diss ','Um_Advec','Um_dPHdx','Um_Ext  ','VISrI_Um',
(PID.TID 0000.0001) >   filename(6) = 'diags/budg_tendU',
(PID.TID 0000.0001) >   fileFlags(6) = 'D       ',
(PID.TID 0000.0001) >#---
(PID.TID 0000.0001) >  frequency(7) = 2635200.0,
(PID.TID 0000.0001) >   fields(1:7,7) = 'TOTVTEND','AB_gV   ','Vm_Diss ','Vm_Advec','Vm_dPHdy','Vm_Ext  ','VISrI_Vm',
(PID.TID 0000.0001) >   filename(7) = 'diags/budg_tendV',
(PID.TID 0000.0001) >   fileFlags(7) = 'D       ',
(PID.TID 0000.0001) >#---
(PID.TID 0000.0001) > &
(PID.TID 0000.0001) >#
(PID.TID 0000.0001) >#
(PID.TID 0000.0001) ># Parameter for Diagnostics of per level statistics:
(PID.TID 0000.0001) >#-----------------
(PID.TID 0000.0001) ># for each output-stream:
(PID.TID 0000.0001) >#  stat_fname(n) : prefix of the output file name (only 8.c long) for outp.stream n
(PID.TID 0000.0001) >#  stat_freq(n):< 0 : write snap-shot output every |stat_freq| seconds
(PID.TID 0000.0001) >#               > 0 : write time-average output every stat_freq seconds
(PID.TID 0000.0001) >#  stat_phase(n)    : write at time = stat_phase + multiple of |stat_freq|
(PID.TID 0000.0001) >#  stat_region(:,n) : list of "regions" (default: 1 region only=global)
(PID.TID 0000.0001) >#  stat_fields(:,n) : list of diagnostics fields (8.c) (see "available_diagnostics.log"
(PID.TID 0000.0001) >#                 file for the list of all available diag. in this particular config)
(PID.TID 0000.0001) >#-----------------
(PID.TID 0000.0001) > &DIAG_STATIS_PARMS
(PID.TID 0000.0001) ># diagSt_regMaskFile='basin_masks_eccollc_90x50.bin',
(PID.TID 0000.0001) ># nSetRegMskFile=1,
(PID.TID 0000.0001) ># set_regMask(1)= 1,  1,  1,  1,  1,  1,  1,  1,  1,
(PID.TID 0000.0001) >#                 1,  1,  1,  1,  1,  1,  1,  1
(PID.TID 0000.0001) ># val_regMask(1)= 1., 2., 3., 4., 5., 6., 7., 8., 9.,
(PID.TID 0000.0001) >#                10.,11.,12.,13.,14.,15.,16.,17.
(PID.TID 0000.0001) >##---
(PID.TID 0000.0001) ># stat_fields(1,1)= 'ETAN    ','ETANSQ  ','DETADT2 ',
(PID.TID 0000.0001) >#                   'UVEL    ','VVEL    ','WVEL    ',
(PID.TID 0000.0001) >#                   'THETA   ','SALT    ',
(PID.TID 0000.0001) >#    stat_fname(1)= 'dynStDiag',
(PID.TID 0000.0001) >#     stat_freq(1)= 3153600.,
(PID.TID 0000.0001) ># stat_region(1,1)=  1, 2, 3, 4, 5, 6, 7, 8, 9,
(PID.TID 0000.0001) >#                   10,11,12,13,14,15,16,17
(PID.TID 0000.0001) >##---
(PID.TID 0000.0001) ># stat_fields(1,2)= 'oceTAUX ','oceTAUY ',
(PID.TID 0000.0001) >#                   'surForcT','surForcS','TFLUX   ','SFLUX   ',
(PID.TID 0000.0001) >#                   'oceQnet ','oceSflux','oceFWflx',
(PID.TID 0000.0001) >#    stat_fname(2)= 'surfStDiag',
(PID.TID 0000.0001) >#     stat_freq(2)= 3153600.,
(PID.TID 0000.0001) ># stat_region(1,2)=  1, 2, 3, 4, 5, 6, 7, 8, 9,
(PID.TID 0000.0001) >#                   10,11,12,13,14,15,16,17
(PID.TID 0000.0001) > &
(PID.TID 0000.0001) 
(PID.TID 0000.0001) S/R DIAGNOSTICS_READPARMS, read namelist "diagnostics_list": start
(PID.TID 0000.0001) S/R DIAGNOSTICS_READPARMS, read namelist "diagnostics_list": OK
(PID.TID 0000.0001) S/R DIAGNOSTICS_READPARMS, read namelist "DIAG_STATIS_PARMS": start
(PID.TID 0000.0001) S/R DIAGNOSTICS_READPARMS, read namelist "DIAG_STATIS_PARMS": OK
(PID.TID 0000.0001)  DIAGNOSTICS_READPARMS: global parameter summary:
(PID.TID 0000.0001)  dumpAtLast = /* always write time-ave diags at the end */
(PID.TID 0000.0001)                   T
(PID.TID 0000.0001)     ;
(PID.TID 0000.0001)  diag_mnc =   /* write NetCDF output files */
(PID.TID 0000.0001)                   F
(PID.TID 0000.0001)     ;
(PID.TID 0000.0001)  useMissingValue = /* put MissingValue where mask = 0 */
(PID.TID 0000.0001)                   F
(PID.TID 0000.0001)     ;
(PID.TID 0000.0001)  diagCG_maxIters = /* max number of iters in diag_cg2d */
(PID.TID 0000.0001)                     300
(PID.TID 0000.0001)     ;
(PID.TID 0000.0001)  diagCG_resTarget = /* residual target for diag_cg2d */
(PID.TID 0000.0001)                 1.000000000000000E-07
(PID.TID 0000.0001)     ;
(PID.TID 0000.0001)  diagCG_pcOffDFac = /* preconditioner off-diagonal factor */
(PID.TID 0000.0001)                 9.611687812379854E-01
(PID.TID 0000.0001)     ;
(PID.TID 0000.0001) -----------------------------------------------------
(PID.TID 0000.0001)  DIAGNOSTICS_READPARMS: active diagnostics summary:
(PID.TID 0000.0001) -----------------------------------------------------
(PID.TID 0000.0001) Creating Output Stream: diags/state_3d_set1
(PID.TID 0000.0001) Output Frequency:    2635200.000000 ; Phase:           0.000000
(PID.TID 0000.0001)  Averaging Freq.:    2635200.000000 , Phase:           0.000000 , Cycle:   1
(PID.TID 0000.0001)  missing value: -9.990000000000E+02
(PID.TID 0000.0001)  Levels:    will be set later
(PID.TID 0000.0001)  Fields:    THETA    SALT     DRHODR
(PID.TID 0000.0001) Creating Output Stream: diags/budg_aveSURF
(PID.TID 0000.0001) Output Frequency:    2635200.000000 ; Phase:           0.000000
(PID.TID 0000.0001)  Averaging Freq.:    2635200.000000 , Phase:           0.000000 , Cycle:   1
(PID.TID 0000.0001)  missing value: -9.990000000000E+02 ; F-Flags="D       "
(PID.TID 0000.0001)  Levels:    will be set later
(PID.TID 0000.0001)  Fields:    ETAN     SIarea   SIheff   SIhsnow  sIceLoad PHI_SURF
(PID.TID 0000.0001) Creating Output Stream: diags/budg_snapUV
(PID.TID 0000.0001) Output Frequency:   -2635200.000000 ; Phase:           0.000000
(PID.TID 0000.0001)  Averaging Freq.:          0.000000 , Phase:           0.000000 , Cycle:   1
(PID.TID 0000.0001)  missing value: -9.990000000000E+02 ; F-Flags="D       "
(PID.TID 0000.0001)  Levels:    will be set later
(PID.TID 0000.0001)  Fields:    UVEL     VVEL     UVELMASS VVELMASS
(PID.TID 0000.0001) Creating Output Stream: diags/budg_tendU
(PID.TID 0000.0001) Output Frequency:    2635200.000000 ; Phase:           0.000000
(PID.TID 0000.0001)  Averaging Freq.:    2635200.000000 , Phase:           0.000000 , Cycle:   1
(PID.TID 0000.0001)  missing value: -9.990000000000E+02 ; F-Flags="D       "
(PID.TID 0000.0001)  Levels:    will be set later
(PID.TID 0000.0001)  Fields:    TOTUTEND AB_gU    Um_Diss  Um_Advec Um_dPHdx Um_Ext   VISrI_Um
(PID.TID 0000.0001) Creating Output Stream: diags/budg_tendV
(PID.TID 0000.0001) Output Frequency:    2635200.000000 ; Phase:           0.000000
(PID.TID 0000.0001)  Averaging Freq.:    2635200.000000 , Phase:           0.000000 , Cycle:   1
(PID.TID 0000.0001)  missing value: -9.990000000000E+02 ; F-Flags="D       "
(PID.TID 0000.0001)  Levels:    will be set later
(PID.TID 0000.0001)  Fields:    TOTVTEND AB_gV    Vm_Diss  Vm_Advec Vm_dPHdy Vm_Ext   VISrI_Vm
(PID.TID 0000.0001) -----------------------------------------------------
(PID.TID 0000.0001)  DIAGNOSTICS_READPARMS: statistics diags. summary:
(PID.TID 0000.0001) -----------------------------------------------------
(PID.TID 0000.0001) 
(PID.TID 0000.0001) SET_PARMS: done
==> SYSTEM CALL (from INI_MODEL_IO): > mkdir -p profiles <
(PID.TID 0000.0001) Enter INI_VERTICAL_GRID: setInterFDr=    T ; setCenterDr=    F
(PID.TID 0000.0001) tile:   4 ; Read from file tile001.mitgrid
(PID.TID 0000.0001)   => xC yC dxF dyF rA xG yG dxV dyU rAz dxC dyC rAw rAs dxG dyG
(PID.TID 0000.0001) %MON XC_max                       =   1.7997758946678E+02
(PID.TID 0000.0001) %MON XC_min                       =  -1.7998895680928E+02
(PID.TID 0000.0001) %MON XC_mean                      =  -6.8997670631350E+00
(PID.TID 0000.0001) %MON XC_sd                        =   1.0548127462941E+02
(PID.TID 0000.0001) %MON XG_max                       =   1.8000000000000E+02
(PID.TID 0000.0001) %MON XG_min                       =  -1.7999919444240E+02
(PID.TID 0000.0001) %MON XG_mean                      =  -6.3521159278861E+00
(PID.TID 0000.0001) %MON XG_sd                        =   1.0549598176576E+02
(PID.TID 0000.0001) %MON DXC_max                      =   1.1117680031365E+05
(PID.TID 0000.0001) %MON DXC_min                      =   1.3362789164732E+04
(PID.TID 0000.0001) %MON DXC_mean                     =   7.1345115143606E+04
(PID.TID 0000.0001) %MON DXC_sd                       =   2.6107013089865E+04
(PID.TID 0000.0001) %MON DXF_max                      =   1.1117680031365E+05
(PID.TID 0000.0001) %MON DXF_min                      =   1.3491575949394E+04
(PID.TID 0000.0001) %MON DXF_mean                     =   7.1334806791260E+04
(PID.TID 0000.0001) %MON DXF_sd                       =   2.6121349328995E+04
(PID.TID 0000.0001) %MON DXG_max                      =   1.1117747335204E+05
(PID.TID 0000.0001) %MON DXG_min                      =   1.0930409249570E+04
(PID.TID 0000.0001) %MON DXG_mean                     =   7.1313583950284E+04
(PID.TID 0000.0001) %MON DXG_sd                       =   2.6131714747840E+04
(PID.TID 0000.0001) %MON DXV_max                      =   1.1117747335204E+05
(PID.TID 0000.0001) %MON DXV_min                      =   9.4742518926426E+03
(PID.TID 0000.0001) %MON DXV_mean                     =   7.1323777998314E+04
(PID.TID 0000.0001) %MON DXV_sd                       =   2.6117603792432E+04
(PID.TID 0000.0001) %MON YC_max                       =   8.9739397429324E+01
(PID.TID 0000.0001) %MON YC_min                       =  -8.1637173529390E+01
(PID.TID 0000.0001) %MON YC_mean                      =  -5.9338515025079E-01
(PID.TID 0000.0001) %MON YC_sd                        =   5.1058908630085E+01
(PID.TID 0000.0001) %MON YG_max                       =   9.0000000000000E+01
(PID.TID 0000.0001) %MON YG_min                       =  -8.1805478609906E+01
(PID.TID 0000.0001) %MON YG_mean                      =  -5.7357831765458E-01
(PID.TID 0000.0001) %MON YG_sd                        =   5.1060174609345E+01
(PID.TID 0000.0001) %MON DYC_max                      =   1.1117680031365E+05
(PID.TID 0000.0001) %MON DYC_min                      =   1.3362789164732E+04
(PID.TID 0000.0001) %MON DYC_mean                     =   7.0982792089666E+04
(PID.TID 0000.0001) %MON DYC_sd                       =   2.6607387075348E+04
(PID.TID 0000.0001) %MON DYF_max                      =   1.1117680031365E+05
(PID.TID 0000.0001) %MON DYF_min                      =   1.3491575949394E+04
(PID.TID 0000.0001) %MON DYF_mean                     =   7.1000127494934E+04
(PID.TID 0000.0001) %MON DYF_sd                       =   2.6603606017547E+04
(PID.TID 0000.0001) %MON DYG_max                      =   1.1117747335204E+05
(PID.TID 0000.0001) %MON DYG_min                      =   1.0930409249570E+04
(PID.TID 0000.0001) %MON DYG_mean                     =   7.1022116512585E+04
(PID.TID 0000.0001) %MON DYG_sd                       =   2.6571715830406E+04
(PID.TID 0000.0001) %MON DYU_max                      =   1.1117747335204E+05
(PID.TID 0000.0001) %MON DYU_min                      =   9.4742518926426E+03
(PID.TID 0000.0001) %MON DYU_mean                     =   7.1004694583927E+04
(PID.TID 0000.0001) %MON DYU_sd                       =   2.6575655787476E+04
(PID.TID 0000.0001) %MON RA_max                       =   1.1896090857160E+10
(PID.TID 0000.0001) %MON RA_min                       =   2.1263387742345E+08
(PID.TID 0000.0001) %MON RA_mean                      =   5.6344293572480E+09
(PID.TID 0000.0001) %MON RA_sd                        =   3.5929461176606E+09
(PID.TID 0000.0001) %MON RAW_max                      =   1.1896090856781E+10
(PID.TID 0000.0001) %MON RAW_min                      =   1.7369571508711E+08
(PID.TID 0000.0001) %MON RAW_mean                     =   5.6355850434318E+09
(PID.TID 0000.0001) %MON RAW_sd                       =   3.5915487677190E+09
(PID.TID 0000.0001) %MON RAS_max                      =   1.1896090856781E+10
(PID.TID 0000.0001) %MON RAS_min                      =   1.7369571508711E+08
(PID.TID 0000.0001) %MON RAS_mean                     =   5.6320332286162E+09
(PID.TID 0000.0001) %MON RAS_sd                       =   3.5937184228135E+09
(PID.TID 0000.0001) %MON RAZ_max                      =   1.1891903479271E+10
(PID.TID 0000.0001) %MON RAZ_min                      =   1.0413402423292E+08
(PID.TID 0000.0001) %MON RAZ_mean                     =   5.6331824674695E+09
(PID.TID 0000.0001) %MON RAZ_sd                       =   3.5923307220197E+09
(PID.TID 0000.0001) %MON AngleCS_max                  =   1.0000000000000E+00
(PID.TID 0000.0001) %MON AngleCS_min                  =  -9.9996641938864E-01
(PID.TID 0000.0001) %MON AngleCS_mean                 =   4.0572930529500E-01
(PID.TID 0000.0001) %MON AngleCS_sd                   =   5.3874397836718E-01
(PID.TID 0000.0001) %MON AngleSN_max                  =   9.9996641938864E-01
(PID.TID 0000.0001) %MON AngleSN_min                  =  -1.0000000000000E+00
(PID.TID 0000.0001) %MON AngleSN_mean                 =  -4.9986154624599E-01
(PID.TID 0000.0001) %MON AngleSN_sd                   =   5.4339404779819E-01
(PID.TID 0000.0001) 
(PID.TID 0000.0001) // =======================================================
(PID.TID 0000.0001) // Calendar configuration >>> START <<<
(PID.TID 0000.0001) // =======================================================
(PID.TID 0000.0001) 
(PID.TID 0000.0001) modelstart = /* Start time of the model integration [s] */
(PID.TID 0000.0001)                 3.600000000000000E+03
(PID.TID 0000.0001)     ;
(PID.TID 0000.0001) modelend  = /* End time of the model integration [s] */
(PID.TID 0000.0001)                 6.310656000000000E+08
(PID.TID 0000.0001)     ;
(PID.TID 0000.0001) modelStep = /* Time interval for a model forward step [s] */
(PID.TID 0000.0001)                 3.600000000000000E+03
(PID.TID 0000.0001)     ;
(PID.TID 0000.0001) usingGregorianCalendar= /* Calendar Type: Gregorian Calendar */
(PID.TID 0000.0001)                   T
(PID.TID 0000.0001)     ;
(PID.TID 0000.0001) usingJulianCalendar = /* Calendar Type: Julian Calendar */
(PID.TID 0000.0001)                   F
(PID.TID 0000.0001)     ;
(PID.TID 0000.0001) usingNoLeapYearCal  = /* Calendar Type: without Leap Year */
(PID.TID 0000.0001)                   F
(PID.TID 0000.0001)     ;
(PID.TID 0000.0001) usingModelCalendar  = /* Calendar Type: Model Calendar */
(PID.TID 0000.0001)                   F
(PID.TID 0000.0001)     ;
(PID.TID 0000.0001) modelStartDate YYYYMMDD = /* Model start date YYYY-MM-DD */
(PID.TID 0000.0001)                19920101
(PID.TID 0000.0001)     ;
(PID.TID 0000.0001)   modelStartDate HHMMSS = /* Model start date HH-MM-SS  */
(PID.TID 0000.0001)                  130000
(PID.TID 0000.0001)     ;
(PID.TID 0000.0001) modelEndDate   YYYYMMDD = /* Model end date YYYY-MM-DD */
(PID.TID 0000.0001)                20111231
(PID.TID 0000.0001)     ;
(PID.TID 0000.0001)   modelEndDate   HHMMSS = /* Model end date HH-MM-SS  */
(PID.TID 0000.0001)                  120000
(PID.TID 0000.0001)     ;
(PID.TID 0000.0001) intyears = /* Number of calendar years affected by the integration */
(PID.TID 0000.0001)                      20
(PID.TID 0000.0001)     ;
(PID.TID 0000.0001) intmonths= /* Number of calendar months affected by the integration */
(PID.TID 0000.0001)                     240
(PID.TID 0000.0001)     ;
(PID.TID 0000.0001) intdays = /* Number of calendar days affected by the integration */
(PID.TID 0000.0001)                    7305
(PID.TID 0000.0001)     ;
(PID.TID 0000.0001) modelIter0 = /* Base timestep number  */
(PID.TID 0000.0001)                       1
(PID.TID 0000.0001)     ;
(PID.TID 0000.0001) modelIterEnd = /* Final timestep number  */
(PID.TID 0000.0001)                  175296
(PID.TID 0000.0001)     ;
(PID.TID 0000.0001) modelIntSteps= /* Number of model timesteps  */
(PID.TID 0000.0001)                  175295
(PID.TID 0000.0001)     ;
(PID.TID 0000.0001) 
(PID.TID 0000.0001) // =======================================================
(PID.TID 0000.0001) // Calendar configuration  >>> END <<<
(PID.TID 0000.0001) // =======================================================
(PID.TID 0000.0001) 
(PID.TID 0000.0001) GAD_INIT_FIXED: GAD_OlMinSize=  2  0  2
(PID.TID 0000.0001) 
(PID.TID 0000.0001) // ===================================
(PID.TID 0000.0001) // GAD parameters :
(PID.TID 0000.0001) // ===================================
(PID.TID 0000.0001) tempAdvScheme =   /* Temp. Horiz.Advection scheme selector */
(PID.TID 0000.0001)                      30
(PID.TID 0000.0001)     ;
(PID.TID 0000.0001) tempVertAdvScheme =   /* Temp. Vert. Advection scheme selector */
(PID.TID 0000.0001)                       3
(PID.TID 0000.0001)     ;
(PID.TID 0000.0001) tempMultiDimAdvec =   /* use Muti-Dim Advec method for Temp */
(PID.TID 0000.0001)                   T
(PID.TID 0000.0001)     ;
(PID.TID 0000.0001) tempSOM_Advection = /* use 2nd Order Moment Advection for Temp */
(PID.TID 0000.0001)                   F
(PID.TID 0000.0001)     ;
(PID.TID 0000.0001) AdamsBashforthGt = /* apply Adams-Bashforth extrapolation on Gt */
(PID.TID 0000.0001)                   F
(PID.TID 0000.0001)     ;
(PID.TID 0000.0001) AdamsBashforth_T = /* apply Adams-Bashforth extrapolation on Temp */
(PID.TID 0000.0001)                   F
(PID.TID 0000.0001)     ;
(PID.TID 0000.0001) saltAdvScheme =   /* Salt. Horiz.advection scheme selector */
(PID.TID 0000.0001)                      30
(PID.TID 0000.0001)     ;
(PID.TID 0000.0001) saltVertAdvScheme =   /* Salt. Vert. Advection scheme selector */
(PID.TID 0000.0001)                       3
(PID.TID 0000.0001)     ;
(PID.TID 0000.0001) saltMultiDimAdvec =   /* use Muti-Dim Advec method for Salt */
(PID.TID 0000.0001)                   T
(PID.TID 0000.0001)     ;
(PID.TID 0000.0001) saltSOM_Advection = /* use 2nd Order Moment Advection for Salt */
(PID.TID 0000.0001)                   F
(PID.TID 0000.0001)     ;
(PID.TID 0000.0001) AdamsBashforthGs = /* apply Adams-Bashforth extrapolation on Gs */
(PID.TID 0000.0001)                   F
(PID.TID 0000.0001)     ;
(PID.TID 0000.0001) AdamsBashforth_S = /* apply Adams-Bashforth extrapolation on Salt */
(PID.TID 0000.0001)                   F
(PID.TID 0000.0001)     ;
(PID.TID 0000.0001) // ===================================
(PID.TID 0000.0001) 
(PID.TID 0000.0001) // =======================================================
(PID.TID 0000.0001) // External forcing (EXF) configuration >>> START <<<
(PID.TID 0000.0001) // =======================================================
(PID.TID 0000.0001) 
(PID.TID 0000.0001)  EXF general parameters:
(PID.TID 0000.0001) 
(PID.TID 0000.0001) exf_iprec = /* exf file precision */
(PID.TID 0000.0001)                      32
(PID.TID 0000.0001)     ;
(PID.TID 0000.0001) useExfYearlyFields = /* add extension _YEAR to input file names */
(PID.TID 0000.0001)                   T
(PID.TID 0000.0001)     ;
(PID.TID 0000.0001) twoDigitYear = /* use 2-digit year extension */
(PID.TID 0000.0001)                   F
(PID.TID 0000.0001)     ;
(PID.TID 0000.0001) useExfCheckRange = /* check for fields range */
(PID.TID 0000.0001)                   F
(PID.TID 0000.0001)     ;
(PID.TID 0000.0001) exf_debugLev = /* select EXF-debug printing level */
(PID.TID 0000.0001)                       1
(PID.TID 0000.0001)     ;
(PID.TID 0000.0001) exf_monFreq  = /* EXF monitor frequency [ s ] */
(PID.TID 0000.0001)                 6.307200000000000E+06
(PID.TID 0000.0001)     ;
(PID.TID 0000.0001) repeatPeriod = /* period for cycling forcing dataset [ s ] */
(PID.TID 0000.0001)                 0.000000000000000E+00
(PID.TID 0000.0001)     ;
(PID.TID 0000.0001) climTempFreeze= /* Minimum climatological temperature [deg.C] */
(PID.TID 0000.0001)                -1.900000000000000E+00
(PID.TID 0000.0001)     ;
(PID.TID 0000.0001) windStressMax = /* Maximum absolute windstress [ Pa ] */
(PID.TID 0000.0001)                 2.000000000000000E+00
(PID.TID 0000.0001)     ;
(PID.TID 0000.0001) stressIsOnCgrid = /* set u,v_stress on Arakawa C-grid */
(PID.TID 0000.0001)                   F
(PID.TID 0000.0001)     ;
(PID.TID 0000.0001) rotateStressOnAgrid = /* rotate u,v_stress on Arakawa A-grid */
(PID.TID 0000.0001)                   T
(PID.TID 0000.0001)     ;
(PID.TID 0000.0001) cen2kel = /* conversion of deg. Centigrade to Kelvin [K] */
(PID.TID 0000.0001)                 2.731500000000000E+02
(PID.TID 0000.0001)     ;
(PID.TID 0000.0001) gravity_mks= /* gravitational acceleration [m/s^2] */
(PID.TID 0000.0001)                 9.810000000000000E+00
(PID.TID 0000.0001)     ;
(PID.TID 0000.0001) atmrho =  /* mean atmospheric density [kg/m^3] */
(PID.TID 0000.0001)                 1.200000000000000E+00
(PID.TID 0000.0001)     ;
(PID.TID 0000.0001) atmcp =  /* mean atmospheric specific heat [J/kg/K] */
(PID.TID 0000.0001)                 1.005000000000000E+03
(PID.TID 0000.0001)     ;
(PID.TID 0000.0001) flamb =  /* latent heat of evaporation [J/kg] */
(PID.TID 0000.0001)                 2.500000000000000E+06
(PID.TID 0000.0001)     ;
(PID.TID 0000.0001) flami =  /* latent heat of pure-ice melting [J/kg] */
(PID.TID 0000.0001)                 3.340000000000000E+05
(PID.TID 0000.0001)     ;
(PID.TID 0000.0001) cvapor_fac = /* const. for Saturation calculation [?] */
(PID.TID 0000.0001)                 6.403800000000000E+05
(PID.TID 0000.0001)     ;
(PID.TID 0000.0001) cvapor_exp = /* const. for Saturation calculation [?] */
(PID.TID 0000.0001)                 5.107400000000000E+03
(PID.TID 0000.0001)     ;
(PID.TID 0000.0001) cvapor_fac_ice= /* const. for Saturation calculation [?] */
(PID.TID 0000.0001)                 1.163780000000000E+07
(PID.TID 0000.0001)     ;
(PID.TID 0000.0001) cvapor_exp_ice= /* const. for Saturation calculation [?] */
(PID.TID 0000.0001)                 5.897800000000000E+03
(PID.TID 0000.0001)     ;
(PID.TID 0000.0001) humid_fac = /* humidity coef. in virtual temp. [(kg/kg)^-1] */
(PID.TID 0000.0001)                 6.060000000000000E-01
(PID.TID 0000.0001)     ;
(PID.TID 0000.0001) gamma_blk = /* adiabatic lapse rate [?] */
(PID.TID 0000.0001)                 1.000000000000000E-02
(PID.TID 0000.0001)     ;
(PID.TID 0000.0001) saltsat = /* reduction of Qsat over salty water [-] */
(PID.TID 0000.0001)                 9.800000000000000E-01
(PID.TID 0000.0001)     ;
(PID.TID 0000.0001) noNegativeEvap = /* prevent negative Evaporation */
(PID.TID 0000.0001)                   F
[...]
(PID.TID 0000.0001)                 8.143679155417176E+08,      /* J =  3 */
(PID.TID 0000.0001)                 8.395900636155584E+08,      /* J =  4 */
(PID.TID 0000.0001)                 8.656947784023314E+08,      /* J =  5 */
(PID.TID 0000.0001)                 8.926966010402582E+08,      /* J =  6 */
(PID.TID 0000.0001)                 9.206097737377057E+08,      /* J =  7 */
(PID.TID 0000.0001)                 9.494482582794807E+08,      /* J =  8 */
(PID.TID 0000.0001)                 9.792257431806778E+08,      /* J =  9 */
(PID.TID 0000.0001)                 1.009955679131553E+09,      /* J = 10 */
(PID.TID 0000.0001)                 1.041651296044221E+09,      /* J = 11 */
(PID.TID 0000.0001)                 1.074325614369065E+09,      /* J = 12 */
(PID.TID 0000.0001)                 1.107991467925779E+09,      /* J = 13 */
(PID.TID 0000.0001)                 1.142661498173082E+09,      /* J = 14 */
(PID.TID 0000.0001)                 1.178348167164929E+09,      /* J = 15 */
(PID.TID 0000.0001)                 1.215063762235644E+09,      /* J = 16 */
(PID.TID 0000.0001)                 1.252820414073754E+09,      /* J = 17 */
(PID.TID 0000.0001)                 1.291630043617734E+09,      /* J = 18 */
(PID.TID 0000.0001)                 1.331504416619858E+09,      /* J = 19 */
(PID.TID 0000.0001)                 1.372455096362339E+09,      /* J = 20 */
(PID.TID 0000.0001)                 1.414493440828222E+09,      /* J = 21 */
(PID.TID 0000.0001)                 1.457630613639386E+09,      /* J = 22 */
(PID.TID 0000.0001)                 1.501877517761831E+09,      /* J = 23 */
(PID.TID 0000.0001)                 1.547244834049951E+09,      /* J = 24 */
(PID.TID 0000.0001)                 1.593742963439136E+09,      /* J = 25 */
(PID.TID 0000.0001)                 1.641382020566774E+09,      /* J = 26 */
(PID.TID 0000.0001)                 1.690171807481416E+09,      /* J = 27 */
(PID.TID 0000.0001)                 1.740121820832662E+09,      /* J = 28 */
(PID.TID 0000.0001)                 1.791241246411172E+09,      /* J = 29 */
(PID.TID 0000.0001)                 1.843539059771026E+09       /* J = 30 */
(PID.TID 0000.0001)     ;
(PID.TID 0000.0001) rAw =  /* rAw(:,1,:,1) ( units: m^2 ) */
(PID.TID 0000.0001)                 7.658765213139513E+08,      /* I =  1 */
(PID.TID 0000.0001)                 7.671201328724998E+08,      /* I =  2 */
(PID.TID 0000.0001)                 7.682600121490355E+08,      /* I =  3 */
(PID.TID 0000.0001)                 7.692972101823016E+08,      /* I =  4 */
(PID.TID 0000.0001)                 7.702326756407654E+08,      /* I =  5 */
(PID.TID 0000.0001)                 7.710673044850856E+08,      /* I =  6 */
(PID.TID 0000.0001)                 7.718018764844863E+08,      /* I =  7 */
(PID.TID 0000.0001)                 7.724370884091616E+08,      /* I =  8 */
(PID.TID 0000.0001)                 7.729735468223690E+08,      /* I =  9 */
(PID.TID 0000.0001)                 7.734117650170708E+08,      /* I = 10 */
(PID.TID 0000.0001)                 7.737521718456172E+08,      /* I = 11 */
(PID.TID 0000.0001)                 7.739951054308500E+08,      /* I = 12 */
(PID.TID 0000.0001)                 7.741408739107244E+08,      /* I = 13 */
(PID.TID 0000.0001)                 7.741880730050739E+08,      /* I = 14 */
(PID.TID 0000.0001)                 7.741408710636016E+08,      /* I = 15 */
(PID.TID 0000.0001)                 7.739951071427275E+08,      /* I = 16 */
(PID.TID 0000.0001)                 7.737521718095777E+08,      /* I = 17 */
(PID.TID 0000.0001)                 7.734117675938969E+08,      /* I = 18 */
(PID.TID 0000.0001)                 7.729735457051437E+08,      /* I = 19 */
(PID.TID 0000.0001)                 7.724370889497546E+08,      /* I = 20 */
(PID.TID 0000.0001)                 7.718018793856685E+08,      /* I = 21 */
(PID.TID 0000.0001)                 7.710673053320146E+08,      /* I = 22 */
(PID.TID 0000.0001)                 7.702326816053071E+08,      /* I = 23 */
(PID.TID 0000.0001)                 7.692972065242898E+08,      /* I = 24 */
(PID.TID 0000.0001)                 7.682600115363635E+08,      /* I = 25 */
(PID.TID 0000.0001)                 7.671201363863536E+08,      /* I = 26 */
(PID.TID 0000.0001)                 7.658765213499908E+08,      /* I = 27 */
(PID.TID 0000.0001)                 7.645280345158333E+08,      /* I = 28 */
(PID.TID 0000.0001)                 7.630734673343852E+08,      /* I = 29 */
(PID.TID 0000.0001)                 7.615115062009304E+08       /* I = 30 */
(PID.TID 0000.0001)     ;
(PID.TID 0000.0001) rAw =  /* rAw(1,:,1,:) ( units: m^2 ) */
(PID.TID 0000.0001)                 7.658765213139513E+08,      /* J =  1 */
(PID.TID 0000.0001)                 7.893768970448780E+08,      /* J =  2 */
(PID.TID 0000.0001)                 8.137283914516071E+08,      /* J =  3 */
(PID.TID 0000.0001)                 8.389460603348250E+08,      /* J =  4 */
(PID.TID 0000.0001)                 8.650445848102766E+08,      /* J =  5 */
(PID.TID 0000.0001)                 8.920382782103341E+08,      /* J =  6 */
(PID.TID 0000.0001)                 9.199411445401106E+08,      /* J =  7 */
(PID.TID 0000.0001)                 9.487668893433769E+08,      /* J =  8 */
(PID.TID 0000.0001)                 9.785289545527842E+08,      /* J =  9 */
(PID.TID 0000.0001)                 1.009240515336406E+09,      /* J = 10 */
(PID.TID 0000.0001)                 1.040914522930714E+09,      /* J = 11 */
(PID.TID 0000.0001)                 1.073563715488477E+09,      /* J = 12 */
(PID.TID 0000.0001)                 1.107200612276400E+09,      /* J = 13 */
(PID.TID 0000.0001)                 1.141837554111466E+09,      /* J = 14 */
(PID.TID 0000.0001)                 1.177486672294872E+09,      /* J = 15 */
(PID.TID 0000.0001)                 1.214159933192917E+09,      /* J = 16 */
(PID.TID 0000.0001)                 1.251869095602249E+09,      /* J = 17 */
(PID.TID 0000.0001)                 1.290625742284441E+09,      /* J = 18 */
(PID.TID 0000.0001)                 1.330441258846839E+09,      /* J = 19 */
(PID.TID 0000.0001)                 1.371326820624166E+09,      /* J = 20 */
(PID.TID 0000.0001)                 1.413293399742275E+09,      /* J = 21 */
(PID.TID 0000.0001)                 1.456351737475827E+09,      /* J = 22 */
(PID.TID 0000.0001)                 1.500512320083793E+09,      /* J = 23 */
(PID.TID 0000.0001)                 1.545785394792978E+09,      /* J = 24 */
(PID.TID 0000.0001)                 1.592180902277974E+09,      /* J = 25 */
(PID.TID 0000.0001)                 1.639708504465653E+09,      /* J = 26 */
(PID.TID 0000.0001)                 1.688377519501836E+09,      /* J = 27 */
(PID.TID 0000.0001)                 1.738196956421325E+09,      /* J = 28 */
(PID.TID 0000.0001)                 1.789175499722981E+09,      /* J = 29 */
(PID.TID 0000.0001)                 1.841321602441802E+09       /* J = 30 */
(PID.TID 0000.0001)     ;
(PID.TID 0000.0001) rAs =  /* rAs(:,1,:,1) ( units: m^2 ) */
(PID.TID 0000.0001)                 7.550751050606852E+08,      /* I =  1 */
(PID.TID 0000.0001)                 7.562658447772087E+08,      /* I =  2 */
(PID.TID 0000.0001)                 7.573533970032284E+08,      /* I =  3 */
(PID.TID 0000.0001)                 7.583387692957978E+08,      /* I =  4 */
(PID.TID 0000.0001)                 7.592229121974397E+08,      /* I =  5 */
(PID.TID 0000.0001)                 7.600066705467438E+08,      /* I =  6 */
(PID.TID 0000.0001)                 7.606907923080522E+08,      /* I =  7 */
(PID.TID 0000.0001)                 7.612759532224941E+08,      /* I =  8 */
(PID.TID 0000.0001)                 7.617627129118443E+08,      /* I =  9 */
(PID.TID 0000.0001)                 7.621515550445726E+08,      /* I = 10 */
(PID.TID 0000.0001)                 7.624428588466020E+08,      /* I = 11 */
(PID.TID 0000.0001)                 7.626369483673384E+08,      /* I = 12 */
(PID.TID 0000.0001)                 7.627333738515058E+08,      /* I = 13 */
(PID.TID 0000.0001)                 7.627333728604188E+08,      /* I = 14 */
(PID.TID 0000.0001)                 7.626369508901051E+08,      /* I = 15 */
(PID.TID 0000.0001)                 7.624428655319341E+08,      /* I = 16 */
(PID.TID 0000.0001)                 7.621515526659639E+08,      /* I = 17 */
(PID.TID 0000.0001)                 7.617627197953936E+08,      /* I = 18 */
(PID.TID 0000.0001)                 7.612759510961621E+08,      /* I = 19 */
(PID.TID 0000.0001)                 7.606907969030919E+08,      /* I = 20 */
(PID.TID 0000.0001)                 7.600066694295187E+08,      /* I = 21 */
(PID.TID 0000.0001)                 7.592229103594238E+08,      /* I = 22 */
(PID.TID 0000.0001)                 7.583387684488690E+08,      /* I = 23 */
(PID.TID 0000.0001)                 7.573533915792797E+08,      /* I = 24 */
(PID.TID 0000.0001)                 7.562658465071062E+08,      /* I = 25 */
(PID.TID 0000.0001)                 7.550751079979067E+08,      /* I = 26 */
(PID.TID 0000.0001)                 7.537800585200102E+08,      /* I = 27 */
(PID.TID 0000.0001)                 7.523795064624999E+08,      /* I = 28 */
(PID.TID 0000.0001)                 7.508721675027735E+08,      /* I = 29 */
(PID.TID 0000.0001)                 7.492566800675046E+08       /* I = 30 */
(PID.TID 0000.0001)     ;
(PID.TID 0000.0001) rAs =  /* rAs(1,:,1,:) ( units: m^2 ) */
(PID.TID 0000.0001)                 7.550751050606852E+08,      /* J =  1 */
(PID.TID 0000.0001)                 7.781568160584769E+08,      /* J =  2 */
(PID.TID 0000.0001)                 8.020831616625657E+08,      /* J =  3 */
(PID.TID 0000.0001)                 8.268695937660589E+08,      /* J =  4 */
(PID.TID 0000.0001)                 8.525311818286231E+08,      /* J =  5 */
(PID.TID 0000.0001)                 8.790826547724357E+08,      /* J =  6 */
(PID.TID 0000.0001)                 9.065383887828039E+08,      /* J =  7 */
(PID.TID 0000.0001)                 9.349124897125442E+08,      /* J =  8 */
(PID.TID 0000.0001)                 9.642187819277472E+08,      /* J =  9 */
(PID.TID 0000.0001)                 9.944708240750725E+08,      /* J = 10 */
(PID.TID 0000.0001)                 1.025681954725808E+09,      /* J = 11 */
(PID.TID 0000.0001)                 1.057865313008499E+09,      /* J = 12 */
(PID.TID 0000.0001)                 1.091033805921100E+09,      /* J = 13 */
(PID.TID 0000.0001)                 1.125200178247652E+09,      /* J = 14 */
(PID.TID 0000.0001)                 1.160376979600140E+09,      /* J = 15 */
(PID.TID 0000.0001)                 1.196576586510721E+09,      /* J = 16 */
(PID.TID 0000.0001)                 1.233811208089928E+09,      /* J = 17 */
(PID.TID 0000.0001)                 1.272092866313053E+09,      /* J = 18 */
(PID.TID 0000.0001)                 1.311433405822894E+09,      /* J = 19 */
(PID.TID 0000.0001)                 1.351844507714875E+09,      /* J = 20 */
(PID.TID 0000.0001)                 1.393337606051485E+09,      /* J = 21 */
(PID.TID 0000.0001)                 1.435923987908001E+09,      /* J = 22 */
(PID.TID 0000.0001)                 1.479614675036705E+09,      /* J = 23 */
(PID.TID 0000.0001)                 1.524420466465598E+09,      /* J = 24 */
(PID.TID 0000.0001)                 1.570351910729954E+09,      /* J = 25 */
(PID.TID 0000.0001)                 1.617419255741331E+09,      /* J = 26 */
(PID.TID 0000.0001)                 1.665632470339211E+09,      /* J = 27 */
(PID.TID 0000.0001)                 1.715001205152071E+09,      /* J = 28 */
(PID.TID 0000.0001)                 1.765534790867491E+09,      /* J = 29 */
(PID.TID 0000.0001)                 1.817242347954489E+09       /* J = 30 */
(PID.TID 0000.0001)     ;
(PID.TID 0000.0001) globalArea = /* Integrated horizontal Area (m^2) */
(PID.TID 0000.0001)                 3.580138611494435E+14
(PID.TID 0000.0001)     ;
(PID.TID 0000.0001) hasWetCSCorners = /* Domain contains CS corners (True/False) */
(PID.TID 0000.0001)                   F
(PID.TID 0000.0001)     ;
(PID.TID 0000.0001) // =======================================================
(PID.TID 0000.0001) // End of Model config. summary
(PID.TID 0000.0001) // =======================================================
(PID.TID 0000.0001) 
(PID.TID 0000.0001) == Packages configuration : Check & print summary ==
(PID.TID 0000.0001) 
(PID.TID 0000.0001) GGL90_CHECK: #define ALLOW_GGL90
(PID.TID 0000.0001) GMREDI_CHECK: #define GMREDI
(PID.TID 0000.0001) GM_AdvForm =     /* if FALSE => use SkewFlux Form */
(PID.TID 0000.0001)                   T
(PID.TID 0000.0001)     ;
(PID.TID 0000.0001) GM_InMomAsStress = /* if TRUE => apply as Eddy Stress */
(PID.TID 0000.0001)                   F
(PID.TID 0000.0001)     ;
(PID.TID 0000.0001) GM_AdvSeparate = /* Calc Bolus & Euler Adv. separately */
(PID.TID 0000.0001)                   F
(PID.TID 0000.0001)     ;
(PID.TID 0000.0001) GM_ExtraDiag =   /* Tensor Extra Diag (line 1&2) non 0 */
(PID.TID 0000.0001)                   T
(PID.TID 0000.0001)     ;
(PID.TID 0000.0001) GM_isopycK =    /* Background Isopyc. Diffusivity [m^2/s] */
(PID.TID 0000.0001)                 1.000000000000000E+03
(PID.TID 0000.0001)     ;
(PID.TID 0000.0001) GM_skewflx*K =  /* Background GM_SkewFlx Diffusivity [m^2/s] */
(PID.TID 0000.0001)                 0.000000000000000E+00
(PID.TID 0000.0001)     ;
(PID.TID 0000.0001) GM_advec*K =    /* Backg. GM-Advec(=Bolus) Diffusivity [m^2/s]*/
(PID.TID 0000.0001)                 1.000000000000000E+03
(PID.TID 0000.0001)     ;
(PID.TID 0000.0001) GM_Kmin_horiz = /* Minimum Horizontal Diffusivity [m^2/s] */
(PID.TID 0000.0001)                 1.000000000000000E+02
(PID.TID 0000.0001)     ;
(PID.TID 0000.0001) GM_Visbeck_alpha = /* Visbeck alpha coeff. [-] */
(PID.TID 0000.0001)                 0.000000000000000E+00
(PID.TID 0000.0001)     ;
(PID.TID 0000.0001) GM_Small_Number =  /* epsilon used in slope calc */
(PID.TID 0000.0001)                 9.999999999999999E-21
(PID.TID 0000.0001)     ;
(PID.TID 0000.0001) GM_slopeSqCutoff = /* Slope^2 cut-off value */
(PID.TID 0000.0001)                 1.000000000000000E+08
(PID.TID 0000.0001)     ;
(PID.TID 0000.0001) GM_taper_scheme =  /* Type of Tapering/Clipping scheme */
(PID.TID 0000.0001)               'stableGmAdjTap                          '
(PID.TID 0000.0001)     ;
(PID.TID 0000.0001) GM_maxSlope =  /* Maximum Slope (Tapering/Clipping) */
(PID.TID 0000.0001)                 4.000000000000000E-03
(PID.TID 0000.0001)     ;
(PID.TID 0000.0001) GM_facTrL2dz = /* Minimum Trans.Layer Thick. (factor of dz) */
(PID.TID 0000.0001)                 1.000000000000000E+00
(PID.TID 0000.0001)     ;
(PID.TID 0000.0001) GM_facTrL2ML = /* Max.Trans.Layer Thick. (factor of MxL Depth)*/
(PID.TID 0000.0001)                 5.000000000000000E+00
(PID.TID 0000.0001)     ;
(PID.TID 0000.0001) GM_maxTransLay = /* Maximum Transition Layer Thickness [m] */
(PID.TID 0000.0001)                 5.000000000000000E+02
(PID.TID 0000.0001)     ;
(PID.TID 0000.0001) GM_UseBVP = /* if TRUE => use bvp a la Ferrari et al. (2010) */
(PID.TID 0000.0001)                   F
(PID.TID 0000.0001)     ;
(PID.TID 0000.0001) GM_BVP_ModeNumber = /* Vertical mode number for BVP wave speed */
(PID.TID 0000.0001)                       1
(PID.TID 0000.0001)     ;
(PID.TID 0000.0001) GM_BVP_cMin = /* Minimum wave speed for BVP [m/s] */
(PID.TID 0000.0001)                 1.000000000000000E-01
(PID.TID 0000.0001)     ;
(PID.TID 0000.0001) GM_useSubMeso = /* if TRUE => use Sub-Meso param. (B.Fox-Kemper) */
(PID.TID 0000.0001)                   F
(PID.TID 0000.0001)     ;
(PID.TID 0000.0001) subMeso_Ceff = /* efficiency coeff. of Mixed-Layer Eddies [-] */
(PID.TID 0000.0001)                 7.000000000000001E-02
(PID.TID 0000.0001)     ;
(PID.TID 0000.0001) subMeso_invTau = /* inverse of Sub-Meso mixing time-scale [/s] */
(PID.TID 0000.0001)                 2.000000000000000E-06
(PID.TID 0000.0001)     ;
(PID.TID 0000.0001) subMeso_LfMin = /* minimum length-scale "Lf" [m] */
(PID.TID 0000.0001)                 1.000000000000000E+03
(PID.TID 0000.0001)     ;
(PID.TID 0000.0001) subMeso_Lmax = /* maximum grid-scale length [m] */
(PID.TID 0000.0001)                 1.100000000000000E+05
(PID.TID 0000.0001)     ;
(PID.TID 0000.0001) SEAICE_CHECK: #define ALLOW_SEAICE
(PID.TID 0000.0001) SALT_PLUME_CHECK: #define SALT_PLUME
(PID.TID 0000.0001) CTRL_CHECK: ctrl package
(PID.TID 0000.0001) COST_CHECK: cost package
(PID.TID 0000.0001) etaday defined by gencost  12
(PID.TID 0000.0001) GAD_CHECK: #define ALLOW_GENERIC_ADVDIFF
(PID.TID 0000.0001) // =======================================================
(PID.TID 0000.0001) // Check Model config. (CONFIG_CHECK):
(PID.TID 0000.0001) // CONFIG_CHECK : Normal End
(PID.TID 0000.0001) // =======================================================
(PID.TID 0000.0001) 
(PID.TID 0000.0001)  nRecords = 403 ; filePrec =  64 ; fileIter =     26280
(PID.TID 0000.0001)     nDims =   2 , dims:
(PID.TID 0000.0001)    1:  90   1  90
(PID.TID 0000.0001)    2:1170   11170
(PID.TID 0000.0001)     nFlds =  11 , nFl3D =   8 , fields:
(PID.TID 0000.0001)  >Uvel    < >Vvel    < >Theta   < >Salt    < >GuNm1   < >GuNm2   < >GvNm1   < >GvNm2   < >EtaN    < >dEtaHdt < >EtaH    <
(PID.TID 0000.0001) missingVal=  1.00000000000000E+00 ; nTimRec =   1 , timeList:
(PID.TID 0000.0001)   9.460800000000E+07
(PID.TID 0000.0001) READ_MFLDS_3D_RL: read field: "Uvel    ", #   1 in fldList, rec=   1
(PID.TID 0000.0001) READ_MFLDS_3D_RL: read field: "Vvel    ", #   2 in fldList, rec=   2
(PID.TID 0000.0001) READ_MFLDS_3D_RL: read field: "Theta   ", #   3 in fldList, rec=   3
(PID.TID 0000.0001) READ_MFLDS_3D_RL: read field: "Salt    ", #   4 in fldList, rec=   4
(PID.TID 0000.0001) READ_MFLDS_3D_RL: read field: "GuNm1   ", #   5 in fldList, rec=   5
(PID.TID 0000.0001) READ_MFLDS_3D_RL: read field: "GuNm2   ", #   6 in fldList, rec=   6
(PID.TID 0000.0001) READ_MFLDS_3D_RL: read field: "GvNm1   ", #   7 in fldList, rec=   7
(PID.TID 0000.0001) READ_MFLDS_3D_RL: read field: "GvNm2   ", #   8 in fldList, rec=   8
(PID.TID 0000.0001) READ_MFLDS_3D_RL: read field: "EtaN    ", #   9 in fldList, rec= 401
(PID.TID 0000.0001) READ_MFLDS_3D_RL: read field: "dEtaHdt ", #  10 in fldList, rec= 402
(PID.TID 0000.0001) READ_MFLDS_3D_RL: read field: "EtaH    ", #  11 in fldList, rec= 403
(PID.TID 0000.0001) READ_MFLDS_CHECK: - normal end ; reset MFLDS file-name: pickup.0000000001
(PID.TID 0000.0001)  nRecords =   6 ; filePrec =  64 ; fileIter =     17532
(PID.TID 0000.0001)     nDims =   2 , dims:
(PID.TID 0000.0001)    1:  90   1  90
(PID.TID 0000.0001)    2:1170   11170
(PID.TID 0000.0001)     nFlds =   6 , nFl3D =   0 , fields:
(PID.TID 0000.0001)  >siTICE  < >siAREA  < >siHEFF  < >siHSNOW < >siUICE  < >siVICE  <
(PID.TID 0000.0001) missingVal=  1.00000000000000E+00 ; nTimRec =   1 , timeList:
(PID.TID 0000.0001)   6.311520000000E+07
(PID.TID 0000.0001) READ_MFLDS_LEV_RL: read field: "siTICE  ", #   1 in fldList, rec=   1
(PID.TID 0000.0001) READ_MFLDS_3D_RL: read field: "siAREA  ", #   2 in fldList, rec=   2
(PID.TID 0000.0001) READ_MFLDS_3D_RL: read field: "siHEFF  ", #   3 in fldList, rec=   3
(PID.TID 0000.0001) READ_MFLDS_3D_RL: read field: "siHSNOW ", #   4 in fldList, rec=   4
(PID.TID 0000.0001) READ_MFLDS_3D_RL: read field: "siUICE  ", #   5 in fldList, rec=   5
(PID.TID 0000.0001) READ_MFLDS_3D_RL: read field: "siVICE  ", #   6 in fldList, rec=   6
(PID.TID 0000.0001) READ_MFLDS_CHECK: - normal end ; reset MFLDS file-name: pickup_seaice.0000000001
(PID.TID 0000.0001) // =======================================================
(PID.TID 0000.0001) // Model current state
(PID.TID 0000.0001) // =======================================================
(PID.TID 0000.0001) 
(PID.TID 0000.0001) SOLVE_FOR_PRESSURE: putPmEinXvector =    F
 cg2d: Sum(rhs),rhsMax =   3.03919922810639E+00  4.16913281057820E-01
...

